#  
#       XFOIL         Version 6.1
#  
# Calculated polar for: AirfoilName                     
#  
# 1 1 Reynolds number fixed          Mach number fixed         
#  
# xtrf =   1.000 (suction)    1.000 (pressure)
# Mach =    .000     Re =     9.000 e 6     Ncrit =   9.000
#  
#   alpha     CL        CD      Re(CL)     CM     S xtr   P xtr
#  ------- -------- --------- --------- -------- ------- -------
    .000    .1890    .00409   9.00000   .0427   .4958   .4818
    .500    .2480    .00413   9.00000   .0434   .4741   .5046
   1.000    .3072    .00417   9.00000   .0441   .4590   .5185
   1.500    .3658    .00428   9.00000   .0447   .4326   .5321
   2.000    .4236    .00450   9.00000   .0452   .3926   .5437
   2.500    .4798    .00490   9.00000   .0455   .3252   .5569
   3.000    .5346    .00549   9.00000   .0457   .2388   .5685
   3.500    .5907    .00591   9.00000   .0460   .1871   .5800
   4.000    .6468    .00632   9.00000   .0463   .1435   .5913
   4.500    .7024    .00677   9.00000   .0465   .0980   .6023
   5.000    .7581    .00721   9.00000   .0468   .0660   .6136
   5.500    .8134    .00766   9.00000   .0470   .0408   .6258
   6.000    .8696    .00798   9.00000   .0473   .0320   .6376
   6.500    .9257    .00828   9.00000   .0476   .0287   .6488
   7.000    .9816    .00859   9.00000   .0479   .0256   .6624
   7.500   1.0377    .00885   9.00000   .0483   .0241   .6740
   8.000   1.0927    .00922   9.00000   .0485   .0214   .6874
   8.500   1.1476    .00957   9.00000   .0487   .0192   .7001
   9.000   1.2015    .00998   9.00000   .0487   .0168   .7134
   9.500   1.2549    .01042   9.00000   .0488   .0142   .7268
  10.000   1.3072    .01093   9.00000   .0487   .0123   .7400
  10.500   1.3591    .01143   9.00000   .0485   .0106   .7543
  11.000   1.4100    .01196   9.00000   .0482   .0097   .7686
  11.500   1.4593    .01258   9.00000   .0477   .0089   .7836
  12.000   1.5067    .01330   9.00000   .0470   .0078   .8008
  13.000   1.6018    .01449   9.00000   .0458   .0074   .8387
  13.500   1.6457    .01521   9.00000   .0447   .0070   .8620
  14.000   1.6831    .01604   9.00000   .0426   .0067   .8956
  14.500   1.7106    .01695   9.00000   .0391   .0065  1.0000
  15.000   1.7369    .01835   9.00000   .0364   .0063  1.0000
  15.500   1.7603    .02006   9.00000   .0339   .0060  1.0000
  16.000   1.7795    .02215   9.00000   .0314   .0058  1.0000
  16.500   1.7936    .02476   9.00000   .0291   .0054  1.0000
  17.000   1.8005    .02804   9.00000   .0267   .0050  1.0000
  17.500   1.8156    .03081   9.00000   .0253   .0050  1.0000
  18.000   1.8263    .03401   9.00000   .0239   .0050  1.0000
  18.500   1.8371    .03758   9.00000   .0231   .0050  1.0000
  19.000   1.8449    .04173   9.00000   .0228   .0049  1.0000
  19.500   1.8475    .04663   9.00000   .0229   .0049  1.0000
  20.000   1.8492    .05195   9.00000   .0235   .0047  1.0000
  20.500   1.8487    .05789   9.00000   .0247   .0047  1.0000
  21.000   1.8410    .06507   9.00000   .0266   .0046  1.0000
  21.500   1.8309    .07280   9.00000   .0291   .0045  1.0000
  22.000   1.8185    .08106   9.00000   .0321   .0044  1.0000
