#  
#       XFOIL         Version 6.1
#  
# Calculated polar for: AirfoilName                     
#  
# 1 1 Reynolds number fixed          Mach number fixed         
#  
# xtrf =   1.000 (suction)    1.000 (pressure)
# Mach =    .000     Re =     9.000 e 6     Ncrit =   9.000
#  
#   alpha     CL        CD      Re(CL)     CM     S xtr   P xtr
#  ------- -------- --------- --------- -------- ------- -------
    .000    .3795    .00402   9.00000   .0846   .5584   .5546
    .500    .4403    .00402   9.00000   .0861   .5537   .5601
   1.000    .5001    .00410   9.00000   .0873   .5463   .5635
   1.500    .5599    .00419   9.00000   .0885   .5374   .5649
   2.000    .6200    .00424   9.00000   .0898   .5285   .5694
   2.500    .6790    .00433   9.00000   .0909   .5180   .5746
   3.000    .7388    .00437   9.00000   .0922   .5108   .5793
   3.500    .7929    .00471   9.00000   .0924   .4727   .5831
   4.000    .8346    .00573   9.00000   .0905   .3702   .5864
   4.500    .8796    .00659   9.00000   .0892   .2927   .5883
   5.000    .9224    .00752   9.00000   .0877   .2166   .5927
   5.500    .9654    .00836   9.00000   .0862   .1551   .5984
   6.000   1.0087    .00911   9.00000   .0848   .1122   .6035
   6.500   1.0477    .00986   9.00000   .0825   .0759   .6077
   7.000   1.0785    .01084   9.00000   .0790   .0411   .6112
   7.500   1.1148    .01168   9.00000   .0768   .0277   .6150
   8.000   1.1536    .01244   9.00000   .0751   .0233   .6212
   8.500   1.1923    .01322   9.00000   .0736   .0204   .6269
   9.000   1.2287    .01417   9.00000   .0719   .0181   .6325
   9.500   1.2641    .01517   9.00000   .0702   .0169   .6374
  10.000   1.2976    .01633   9.00000   .0684   .0160   .6456
  10.500   1.3274    .01769   9.00000   .0663   .0149   .6525
  11.000   1.3545    .01929   9.00000   .0641   .0135   .6587
  11.500   1.3853    .02072   9.00000   .0625   .0132   .6659
  12.000   1.4126    .02238   9.00000   .0606   .0131   .6744
  12.500   1.4394    .02424   9.00000   .0590   .0129   .6826
  13.000   1.4689    .02600   9.00000   .0577   .0126   .6923
  13.500   1.4927    .02826   9.00000   .0562   .0123   .7019
  14.000   1.5150    .03067   9.00000   .0547   .0120   .7098
  14.500   1.5405    .03293   9.00000   .0535   .0117   .7204
  15.000   1.5600    .03584   9.00000   .0522   .0114   .7298
  15.500   1.5819    .03859   9.00000   .0511   .0110   .7400
  16.000   1.6001    .04176   9.00000   .0501   .0106   .7523
  16.500   1.6118    .04561   9.00000   .0489   .0100   .7646
  17.500   1.6523    .05191   9.00000   .0479   .0098   .7910
  18.000   1.6759    .05480   9.00000   .0476   .0097   .8048
  18.500   1.6903    .05881   9.00000   .0474   .0096   .8201
  19.000   1.7109    .06207   9.00000   .0472   .0095   .8370
  19.500   1.7219    .06662   9.00000   .0473   .0093   .8554
  20.000   1.7393    .07030   9.00000   .0473   .0091   .8804
  20.500   1.7459    .07536   9.00000   .0476   .0089   .9176
  21.000   1.7578    .07925   9.00000   .0472   .0088  1.0000
  21.500   1.7602    .08503   9.00000   .0479   .0086  1.0000
  22.000   1.7644    .09067   9.00000   .0488   .0084  1.0000
