#  
#       XFOIL         Version 6.1
#  
# Calculated polar for: AirfoilName                     
#  
# 1 1 Reynolds number fixed          Mach number fixed         
#  
# xtrf =   1.000 (suction)    1.000 (pressure)
# Mach =    .000     Re =     3.000 e 6     Ncrit =   9.000
#  
#   alpha     CL        CD      Re(CL)     CM     S xtr   P xtr
#  ------- -------- --------- --------- -------- ------- -------
    .000    .3694    .00522   3.00000   .0816   .5327   .5188
    .500    .4289    .00527   3.00000   .0823   .5236   .5290
   1.000    .4880    .00533   3.00000   .0830   .5132   .5391
   1.500    .5475    .00538   3.00000   .0838   .5053   .5481
   2.000    .6062    .00547   3.00000   .0845   .4949   .5587
   2.500    .6651    .00555   3.00000   .0851   .4831   .5667
   3.000    .7230    .00569   3.00000   .0857   .4686   .5767
   3.500    .7815    .00578   3.00000   .0863   .4569   .5867
   4.000    .8385    .00599   3.00000   .0867   .4361   .5957
   4.500    .8952    .00621   3.00000   .0871   .4146   .6063
   5.000    .9497    .00660   3.00000   .0871   .3818   .6149
   5.500   1.0005    .00725   3.00000   .0866   .3239   .6265
   6.000   1.0496    .00805   3.00000   .0859   .2651   .6371
   6.500   1.0971    .00895   3.00000   .0850   .2079   .6483
   7.000   1.1446    .00981   3.00000   .0842   .1605   .6587
   7.500   1.1917    .01064   3.00000   .0833   .1242   .6701
   8.000   1.2368    .01154   3.00000   .0821   .0915   .6825
   8.500   1.2801    .01248   3.00000   .0807   .0663   .6945
   9.000   1.3198    .01352   3.00000   .0788   .0445   .7069
   9.500   1.3576    .01430   3.00000   .0764   .0368   .7208
  10.000   1.3970    .01512   3.00000   .0745   .0326   .7336
  10.500   1.4317    .01609   3.00000   .0722   .0304   .7485
  11.000   1.4615    .01736   3.00000   .0696   .0280   .7636
  11.500   1.4925    .01864   3.00000   .0675   .0266   .7792
  12.000   1.5225    .02005   3.00000   .0655   .0255   .7970
  12.500   1.5473    .02184   3.00000   .0633   .0243   .8171
  13.000   1.5678    .02404   3.00000   .0610   .0230   .8392
  13.500   1.5809    .02678   3.00000   .0584   .0215   .8696
  14.000   1.6010    .02884   3.00000   .0563   .0209   .9402
  14.500   1.6164    .03152   3.00000   .0543   .0198  1.0000
  15.000   1.6286    .03492   3.00000   .0528   .0186  1.0000
  15.500   1.6374    .03893   3.00000   .0517   .0172  1.0000
  16.000   1.6510    .04270   3.00000   .0511   .0162  1.0000
  16.500   1.6609    .04702   3.00000   .0507   .0150  1.0000
  17.000   1.6648    .05205   3.00000   .0504   .0137  1.0000
  17.500   1.6694    .05735   3.00000   .0506   .0126  1.0000
  18.000   1.6750    .06274   3.00000   .0511   .0119  1.0000
  18.500   1.6765    .06877   3.00000   .0519   .0111  1.0000
  19.000   1.6738    .07551   3.00000   .0531   .0103  1.0000
  19.500   1.6682    .08276   3.00000   .0547   .0096  1.0000
  20.000   1.6693    .08940   3.00000   .0565   .0093  1.0000
  20.500   1.6654    .09696   3.00000   .0588   .0090  1.0000
  21.000   1.6579    .10522   3.00000   .0617   .0087  1.0000
  21.500   1.6480    .11403   3.00000   .0650   .0084  1.0000
  22.000   1.6349    .12353   3.00000   .0690   .0082  1.0000
