#  
#       XFOIL         Version 6.1
#  
# Calculated polar for: AirfoilName                     
#  
# 1 1 Reynolds number fixed          Mach number fixed         
#  
# xtrf =   1.000 (suction)    1.000 (pressure)
# Mach =    .000     Re =     9.000 e 6     Ncrit =   9.000
#  
#   alpha     CL        CD      Re(CL)     CM     S xtr   P xtr
#  ------- -------- --------- --------- -------- ------- -------
    .000    .3745    .00406   9.00000   .0853   .5165   .4994
    .500    .4326    .00412   9.00000   .0858   .5004   .5165
   1.000    .4911    .00416   9.00000   .0865   .4891   .5323
   1.500    .5490    .00424   9.00000   .0870   .4714   .5427
   2.000    .6064    .00437   9.00000   .0875   .4505   .5538
   2.500    .6569    .00503   9.00000   .0867   .3565   .5634
   3.000    .7080    .00569   9.00000   .0862   .2711   .5712
   3.500    .7599    .00629   9.00000   .0858   .1984   .5811
   4.000    .8120    .00689   9.00000   .0854   .1362   .5894
   4.500    .8652    .00737   9.00000   .0853   .0957   .6003
   5.000    .9183    .00786   9.00000   .0851   .0627   .6100
   5.500    .9715    .00831   9.00000   .0850   .0405   .6222
   6.000   1.0255    .00868   9.00000   .0850   .0313   .6338
   6.500   1.0796    .00900   9.00000   .0850   .0262   .6471
   7.000   1.1331    .00936   9.00000   .0850   .0230   .6581
   7.500   1.1864    .00970   9.00000   .0849   .0201   .6717
   8.000   1.2386    .01012   9.00000   .0847   .0175   .6842
   8.500   1.2905    .01052   9.00000   .0844   .0153   .6976
   9.000   1.3414    .01097   9.00000   .0841   .0137   .7116
   9.500   1.3909    .01149   9.00000   .0835   .0119   .7245
  10.500   1.4883    .01248   9.00000   .0821   .0101   .7560
  11.000   1.5337    .01312   9.00000   .0810   .0091   .7726
  12.000   1.6157    .01438   9.00000   .0771   .0080   .8064
  12.500   1.6556    .01508   9.00000   .0753   .0076   .8261
  13.000   1.6874    .01597   9.00000   .0723   .0073   .8525
  13.500   1.7161    .01706   9.00000   .0692   .0069   .8941
  14.000   1.7385    .01825   9.00000   .0653   .0066  1.0000
  14.500   1.7614    .01990   9.00000   .0622   .0062  1.0000
  15.000   1.7817    .02186   9.00000   .0592   .0058  1.0000
  16.000   1.8172    .02632   9.00000   .0538   .0054  1.0000
  16.500   1.8348    .02869   9.00000   .0516   .0054  1.0000
  17.000   1.8499    .03138   9.00000   .0495   .0053  1.0000
  17.500   1.8632    .03449   9.00000   .0478   .0052  1.0000
  18.000   1.8744    .03800   9.00000   .0464   .0050  1.0000
  18.500   1.8808    .04212   9.00000   .0453   .0049  1.0000
  19.000   1.8838    .04685   9.00000   .0445   .0047  1.0000
  19.500   1.8869    .05190   9.00000   .0442   .0046  1.0000
  20.000   1.8868    .05752   9.00000   .0444   .0045  1.0000
  20.500   1.8857    .06348   9.00000   .0449   .0044  1.0000
  21.000   1.8812    .07000   9.00000   .0459   .0043  1.0000
  21.500   1.8746    .07707   9.00000   .0474   .0042  1.0000
  22.000   1.8653    .08482   9.00000   .0495   .0041  1.0000
