#  
#       XFOIL         Version 6.1
#  
# Calculated polar for: AirfoilName                     
#  
# 1 1 Reynolds number fixed          Mach number fixed         
#  
# xtrf =   1.000 (suction)    1.000 (pressure)
# Mach =    .000     Re =     6.000 e 6     Ncrit =   9.000
#  
#   alpha     CL        CD      Re(CL)     CM     S xtr   P xtr
#  ------- -------- --------- --------- -------- ------- -------
    .000    .3747    .00440   6.00000   .0836   .5679   .5639
    .500    .4347    .00447   6.00000   .0848   .5624   .5661
   1.000    .4955    .00447   6.00000   .0863   .5588   .5714
   1.500    .5563    .00446   6.00000   .0877   .5541   .5763
   2.000    .6156    .00453   6.00000   .0889   .5465   .5806
   2.500    .6749    .00462   6.00000   .0900   .5364   .5844
   3.000    .7345    .00469   6.00000   .0912   .5281   .5871
   3.500    .7924    .00485   6.00000   .0921   .5152   .5887
   4.000    .8480    .00510   6.00000   .0927   .4847   .5944
   4.500    .8920    .00596   6.00000   .0912   .4010   .6000
   5.000    .9346    .00690   6.00000   .0896   .3228   .6047
   5.500    .9709    .00812   6.00000   .0870   .2280   .6088
   6.000   1.0093    .00912   6.00000   .0847   .1639   .6117
   6.500   1.0446    .00997   6.00000   .0818   .1200   .6161
   7.000   1.0748    .01102   6.00000   .0784   .0799   .6225
   7.500   1.0996    .01236   6.00000   .0746   .0442   .6279
   8.000   1.1304    .01351   6.00000   .0719   .0293   .6330
   8.500   1.1653    .01454   6.00000   .0700   .0242   .6375
   9.000   1.2002    .01560   6.00000   .0683   .0210   .6462
   9.500   1.2326    .01685   6.00000   .0664   .0191   .6530
  10.500   1.2931    .01967   6.00000   .0627   .0167   .6664
  11.000   1.3225    .02122   6.00000   .0609   .0159   .6748
  11.500   1.3484    .02300   6.00000   .0589   .0150   .6826
  12.000   1.3713    .02515   6.00000   .0569   .0141   .6920
  12.500   1.3933    .02752   6.00000   .0551   .0135   .7017
  13.000   1.4189    .02966   6.00000   .0537   .0132   .7096
  13.500   1.4443    .03193   6.00000   .0525   .0131   .7203
  14.000   1.4694    .03431   6.00000   .0515   .0129   .7298
  14.500   1.4953    .03672   6.00000   .0506   .0127   .7400
  15.000   1.5164    .03965   6.00000   .0497   .0124   .7520
  15.500   1.5404    .04230   6.00000   .0489   .0121   .7645
  16.000   1.5580    .04569   6.00000   .0481   .0118   .7778
  16.500   1.5792    .04864   6.00000   .0474   .0115   .7910
  17.000   1.5922    .05262   6.00000   .0467   .0112   .8044
  17.500   1.6069    .05648   6.00000   .0462   .0107   .8194
  18.000   1.6157    .06106   6.00000   .0457   .0102   .8344
  19.000   1.6417    .06965   6.00000   .0456   .0098   .8757
  19.500   1.6542    .07412   6.00000   .0460   .0097   .9103
  20.000   1.6694    .07761   6.00000   .0456   .0097  1.0000
  20.500   1.6774    .08280   6.00000   .0463   .0096  1.0000
  21.000   1.6913    .08718   6.00000   .0469   .0095  1.0000
  21.500   1.6953    .09309   6.00000   .0480   .0093  1.0000
  22.000   1.7043    .09828   6.00000   .0491   .0092  1.0000
