#  
#       XFOIL         Version 6.1
#  
# Calculated polar for: FFA_W3_211                      
#  
# 1 1 Reynolds number fixed          Mach number fixed         
#  
# xtrf =   1.000 (suction)    1.000 (pressure)
# Mach =    .000     Re =     1.775 e 6     Ncrit =   9.000
#  
#   alpha     CL        CD      Re(CL)     CM     S xtr   P xtr
#  ------- -------- --------- --------- -------- ------- -------
    .000    .3636    .00693   1.77500    .0852   .4404   .4884
    .500    .4245    .00708   1.77500    .0862   .4318   .4922
   1.000    .4861    .00712   1.77500    .0871   .4271   .4958
   1.500    .5471    .00725   1.77500    .0881   .4207   .4984
   2.000    .6077    .00740   1.77500    .0890   .4139   .5014
   2.500    .6686    .00746   1.77500    .0900   .4073   .5069
   3.000    .7296    .00751   1.77500    .0909   .4027   .5109
   3.500    .7900    .00764   1.77500    .0918   .3969   .5140
   4.000    .8498    .00786   1.77500    .0926   .3898   .5171
   4.500    .9099    .00801   1.77500    .0934   .3839   .5199
   5.000    .9701    .00815   1.77500    .0942   .3788   .5222
   5.500   1.0297    .00829   1.77500    .0950   .3724   .5263
   6.000   1.0883    .00856   1.77500    .0957   .3633   .5307
   6.500   1.1484    .00860   1.77500    .0965   .3565   .5341
   7.000   1.2067    .00888   1.77500    .0972   .3455   .5375
   7.500   1.2649    .00912   1.77500    .0978   .3324   .5408
   8.000   1.3217    .00951   1.77500    .0982   .3177   .5437
   8.500   1.3782    .00991   1.77500    .0986   .3017   .5458
   9.000   1.4326    .01049   1.77500    .0988   .2776   .5491
   9.500   1.4844    .01128   1.77500    .0988   .2443   .5544
  10.000   1.5310    .01252   1.77500    .0983   .2023   .5585
  10.500   1.5734    .01398   1.77500    .0972   .1622   .5618
  11.000   1.6096    .01572   1.77500    .0955   .1241   .5650
  11.500   1.6411    .01746   1.77500    .0932   .0975   .5680
  12.000   1.6589    .01935   1.77500    .0891   .0800   .5703
  12.500   1.6663    .02216   1.77500    .0857   .0673   .5744
  13.000   1.6671    .02603   1.77500    .0834   .0584   .5796
  13.500   1.6657    .03053   1.77500    .0819   .0527   .5834
  14.000   1.6551    .03618   1.77500    .0808   .0476   .5865
  14.500   1.6424    .04242   1.77500    .0802   .0440   .5895
  15.000   1.6268    .04983   1.77500    .0807   .0402   .5923
  15.500   1.6190    .05689   1.77500    .0817   .0371   .5947
  16.000   1.6078    .06471   1.77500    .0831   .0344   .5979
  16.500   1.5999    .07252   1.77500    .0850   .0317   .6033
  17.000   1.5938    .08036   1.77500    .0870   .0296   .6079
  17.500   1.5830    .08896   1.77500    .0894   .0276   .6118
  18.000   1.5749    .09741   1.77500    .0919   .0258   .6155
  18.500   1.5706    .10555   1.77500    .0946   .0244   .6188
  19.000   1.5681    .11338   1.77500    .0972   .0229   .6231
  19.500   1.5557    .12311   1.77500    .1009   .0212   .6285
  20.000   1.5527    .13139   1.77500    .1042   .0203   .6334
  20.500   1.5542    .13876   1.77500    .1071   .0193   .6385
  21.000   1.5452    .14831   1.77500    .1114   .0184   .6425
  21.500   1.5343    .15830   1.77500    .1162   .0175   .6472
  22.000   1.5294    .16732   1.77500    .1208   .0165   .6539
