#  
#       XFOIL         Version 6.1
#  
# Calculated polar for: AirfoilName                     
#  
# 1 1 Reynolds number fixed          Mach number fixed         
#  
# xtrf =   1.000 (suction)    1.000 (pressure)
# Mach =    .000     Re =     6.000 e 6     Ncrit =   9.000
#  
#   alpha     CL        CD      Re(CL)     CM     S xtr   P xtr
#  ------- -------- --------- --------- -------- ------- -------
    .000    .3732    .00493   6.00000   .0815   .4937   .4914
    .500    .4338    .00498   6.00000   .0826   .4888   .4949
   1.000    .4949    .00500   6.00000   .0838   .4866   .4968
   1.500    .5555    .00502   6.00000   .0849   .4834   .5020
   2.000    .6155    .00507   6.00000   .0859   .4786   .5077
   2.500    .6748    .00516   6.00000   .0868   .4703   .5130
   3.000    .7349    .00520   6.00000   .0879   .4648   .5182
   3.500    .7947    .00527   6.00000   .0889   .4575   .5215
   4.000    .8532    .00539   6.00000   .0897   .4480   .5297
   4.500    .9123    .00547   6.00000   .0906   .4377   .5369
   5.000    .9650    .00594   6.00000   .0905   .3922   .5431
   5.500   1.0089    .00696   6.00000   .0890   .3103   .5489
   6.000   1.0551    .00783   6.00000   .0879   .2485   .5579
   6.500   1.1014    .00865   6.00000   .0869   .1957   .5656
   7.000   1.1467    .00947   6.00000   .0857   .1523   .5722
   7.500   1.1903    .01029   6.00000   .0844   .1162   .5825
   8.000   1.2330    .01107   6.00000   .0829   .0919   .5913
   8.500   1.2680    .01178   6.00000   .0799   .0748   .5997
   9.000   1.3071    .01263   6.00000   .0781   .0600   .6107
   9.500   1.3398    .01365   6.00000   .0756   .0494   .6202
  10.000   1.3702    .01483   6.00000   .0731   .0411   .6314
  10.500   1.3979    .01625   6.00000   .0706   .0347   .6423
  11.000   1.4239    .01785   6.00000   .0682   .0303   .6537
  11.500   1.4506    .01950   6.00000   .0662   .0277   .6669
  12.000   1.4731    .02149   6.00000   .0640   .0256   .6796
  12.500   1.4949    .02362   6.00000   .0620   .0237   .6925
  13.000   1.5142    .02598   6.00000   .0600   .0225   .7039
  13.500   1.5313    .02878   6.00000   .0582   .0211   .7170
  14.000   1.5474    .03184   6.00000   .0568   .0197   .7287
  14.500   1.5657    .03483   6.00000   .0557   .0188   .7430
  15.000   1.5845    .03790   6.00000   .0547   .0177   .7564
  15.500   1.5967    .04180   6.00000   .0538   .0165   .7714
  16.000   1.6076    .04599   6.00000   .0532   .0153   .7869
  16.500   1.6233    .04981   6.00000   .0530   .0148   .8025
  17.000   1.6387    .05358   6.00000   .0526   .0142   .8217
  17.500   1.6467    .05842   6.00000   .0526   .0135   .8446
  18.000   1.6555    .06323   6.00000   .0527   .0128   .8890
  18.500   1.6630    .06774   6.00000   .0523   .0120  1.0000
  19.000   1.6706    .07300   6.00000   .0529   .0117  1.0000
  19.500   1.6857    .07724   6.00000   .0534   .0115  1.0000
  20.000   1.6888    .08312   6.00000   .0543   .0111  1.0000
  20.500   1.6993    .08795   6.00000   .0550   .0108  1.0000
  21.000   1.6980    .09464   6.00000   .0565   .0104  1.0000
  21.500   1.6960    .10154   6.00000   .0582   .0099  1.0000
  22.000   1.7002    .10752   6.00000   .0597   .0095  1.0000
