#  
#       XFOIL         Version 6.1
#  
# Calculated polar for: S809                            
#  
# 1 1 Reynolds number fixed          Mach number fixed         
#  
# xtrf =   1.000 (suction)    1.000 (pressure)
# Mach =    .000     Re =     1.000 e 6     Ncrit =   9.000
#  
#   alpha     CL        CD      Re(CL)     CM     S xtr   P xtr
#  ------- -------- --------- --------- -------- ------- -------
    .000    .3899    .01024   1.00000    .1391   .5029   .3179
    .500    .4495    .01024   1.00000    .1399   .4949   .3199
   1.000    .5092    .01026   1.00000    .1406   .4882   .3219
   1.500    .5675    .01039   1.00000    .1410   .4815   .3236
   2.000    .6253    .01070   1.00000    .1414   .4727   .3249
   2.500    .6855    .01048   1.00000    .1423   .4685   .3284
   3.000    .7454    .01041   1.00000    .1431   .4638   .3322
   3.500    .8038    .01049   1.00000    .1435   .4581   .3352
   4.000    .8609    .01078   1.00000    .1437   .4482   .3381
   4.500    .9183    .01076   1.00000    .1438   .4420   .3412
   5.000    .9746    .01085   1.00000    .1437   .4331   .3443
   6.000   1.0849    .01110   1.00000    .1430   .4113   .3522
   6.500   1.1353    .01131   1.00000    .1419   .3997   .3571
   7.000   1.1901    .01142   1.00000    .1415   .3852   .3612
   7.500   1.2404    .01179   1.00000    .1403   .3585   .3652
   8.000   1.2788    .01284   1.00000    .1373   .2948   .3686
   8.500   1.3038    .01452   1.00000    .1323   .2237   .3706
   9.000   1.3297    .01603   1.00000    .1277   .1715   .3776
   9.500   1.3545    .01754   1.00000    .1230   .1330   .3824
  10.000   1.3778    .01909   1.00000    .1183   .1052   .3867
  10.500   1.3993    .02077   1.00000    .1136   .0852   .3908
  11.000   1.4170    .02269   1.00000    .1087   .0697   .3943
  11.500   1.4337    .02482   1.00000    .1044   .0578   .4008
  12.000   1.4460    .02737   1.00000    .1002   .0484   .4066
  12.500   1.4546    .03047   1.00000    .0964   .0404   .4113
  13.000   1.4558    .03438   1.00000    .0929   .0331   .4156
  13.500   1.4543    .03909   1.00000    .0903   .0272   .4192
  14.000   1.4533    .04430   1.00000    .0887   .0233   .4248
  14.500   1.4499    .05016   1.00000    .0879   .0210   .4312
  15.000   1.4474    .05634   1.00000    .0876   .0197   .4366
  15.500   1.4396    .06358   1.00000    .0881   .0186   .4417
  16.000   1.4306    .07127   1.00000    .0890   .0176   .4461
  16.500   1.4324    .07788   1.00000    .0902   .0170   .4559
  17.000   1.4309    .08514   1.00000    .0917   .0165   .4641
  17.500   1.4283    .09277   1.00000    .0935   .0160   .4713
  18.000   1.4258    .10055   1.00000    .0956   .0156   .4812
  18.500   1.4215    .10876   1.00000    .0981   .0152   .4908
  19.000   1.4118    .11803   1.00000    .1013   .0148   .4994
  19.500   1.3996    .12788   1.00000    .1052   .0145   .5120
  20.000   1.3845    .13841   1.00000    .1096   .0141   .5232
  20.500   1.3806    .14717   1.00000    .1134   .0138   .5391
  21.000   1.3795    .15578   1.00000    .1175   .0136   .5562
  21.500   1.3759    .16497   1.00000    .1224   .0135   .5748
  22.000   1.3746    .17377   1.00000    .1272   .0133   .5980
