#  
#       XFOIL         Version 6.1
#  
# Calculated polar for: AirfoilName                     
#  
# 1 1 Reynolds number fixed          Mach number fixed         
#  
# xtrf =   1.000 (suction)    1.000 (pressure)
# Mach =    .000     Re =     3.000 e 6     Ncrit =   9.000
#  
#   alpha     CL        CD      Re(CL)     CM     S xtr   P xtr
#  ------- -------- --------- --------- -------- ------- -------
    .000    .3641    .00530   3.00000   .0813   .5823   .5822
    .500    .4252    .00529   3.00000   .0828   .5806   .5853
   1.000    .4860    .00532   3.00000   .0842   .5777   .5878
   1.500    .5460    .00534   3.00000   .0855   .5741   .5921
   2.000    .6053    .00538   3.00000   .0867   .5697   .5975
   2.500    .6633    .00549   3.00000   .0876   .5619   .6018
   3.000    .7238    .00549   3.00000   .0890   .5562   .6056
   3.500    .7827    .00557   3.00000   .0901   .5470   .6094
   4.000    .8406    .00572   3.00000   .0910   .5354   .6120
   4.500    .8980    .00584   3.00000   .0919   .5206   .6179
   5.000    .9522    .00612   3.00000   .0922   .4899   .6235
   5.500   1.0004    .00672   3.00000   .0915   .4367   .6282
   6.000   1.0277    .00836   3.00000   .0873   .3186   .6327
   6.500   1.0548    .00981   3.00000   .0833   .2317   .6360
   7.000   1.0772    .01107   3.00000   .0785   .1711   .6437
   7.500   1.0988    .01255   3.00000   .0742   .1221   .6507
   8.000   1.1140    .01444   3.00000   .0696   .0791   .6566
   8.500   1.1260    .01666   3.00000   .0651   .0441   .6612
   9.000   1.1489    .01845   3.00000   .0623   .0301   .6706
   9.500   1.1759    .02011   3.00000   .0602   .0251   .6781
  10.000   1.2002    .02200   3.00000   .0579   .0218   .6846
  10.500   1.2299    .02359   3.00000   .0563   .0207   .6951
  11.000   1.2551    .02562   3.00000   .0546   .0194   .7043
  11.500   1.2764    .02803   3.00000   .0527   .0181   .7124
  12.000   1.2990    .03047   3.00000   .0511   .0171   .7232
  12.500   1.3270    .03254   3.00000   .0501   .0166   .7325
  13.000   1.3499    .03518   3.00000   .0489   .0162   .7436
  13.500   1.3749    .03768   3.00000   .0479   .0158   .7545
  14.000   1.3952    .04073   3.00000   .0470   .0154   .7672
  14.500   1.4151    .04386   3.00000   .0461   .0150   .7801
  15.000   1.4336    .04712   3.00000   .0452   .0146   .7937
  15.500   1.4459    .05116   3.00000   .0444   .0140   .8066
  16.000   1.4490    .05624   3.00000   .0433   .0132   .8213
  16.500   1.4719    .05945   3.00000   .0433   .0131   .8370
  17.000   1.4951    .06261   3.00000   .0433   .0129   .8550
  17.500   1.5097    .06684   3.00000   .0434   .0127   .8776
  18.000   1.5249    .07088   3.00000   .0433   .0125   .9103
  18.500   1.5318    .07536   3.00000   .0427   .0122  1.0000
  19.000   1.5402    .08057   3.00000   .0433   .0120  1.0000
  19.500   1.5505    .08560   3.00000   .0440   .0118  1.0000
  20.000   1.5555    .09153   3.00000   .0451   .0115  1.0000
  20.500   1.5619    .09733   3.00000   .0464   .0113  1.0000
  21.000   1.5639    .10385   3.00000   .0481   .0111  1.0000
  21.500   1.5587    .11158   3.00000   .0503   .0108  1.0000
  22.000   1.5478    .12023   3.00000   .0532   .0106  1.0000
