#  
#       XFOIL         Version 6.1
#  
# Calculated polar for: AirfoilName                     
#  
# 1 1 Reynolds number fixed          Mach number fixed         
#  
# xtrf =   1.000 (suction)    1.000 (pressure)
# Mach =    .000     Re =     3.000 e 6     Ncrit =   9.000
#  
#   alpha     CL        CD      Re(CL)     CM     S xtr   P xtr
#  ------- -------- --------- --------- -------- ------- -------
    .000    .3694    .00565   3.00000   .0796   .5092   .4952
    .500    .4301    .00566   3.00000   .0807   .5022   .5045
   1.000    .4898    .00573   3.00000   .0816   .4937   .5131
   1.500    .5498    .00581   3.00000   .0825   .4859   .5196
   2.000    .6101    .00584   3.00000   .0835   .4794   .5281
   2.500    .6694    .00593   3.00000   .0843   .4721   .5362
   3.000    .7284    .00605   3.00000   .0851   .4632   .5435
   3.500    .7880    .00612   3.00000   .0860   .4539   .5519
   4.000    .8460    .00628   3.00000   .0866   .4427   .5606
   4.500    .9052    .00637   3.00000   .0875   .4348   .5679
   5.000    .9625    .00658   3.00000   .0880   .4219   .5760
   5.500   1.0201    .00675   3.00000   .0887   .4071   .5853
   6.000   1.0754    .00707   3.00000   .0889   .3844   .5937
   6.500   1.1275    .00758   3.00000   .0887   .3506   .6034
   7.000   1.1752    .00836   3.00000   .0879   .3014   .6125
   7.500   1.2226    .00914   3.00000   .0871   .2632   .6201
   8.000   1.2669    .01003   3.00000   .0859   .2217   .6303
   8.500   1.3077    .01103   3.00000   .0841   .1820   .6399
   9.000   1.3458    .01204   3.00000   .0820   .1503   .6489
   9.500   1.3774    .01302   3.00000   .0789   .1273   .6608
  10.000   1.4054    .01432   3.00000   .0759   .1073   .6703
  10.500   1.4267    .01603   3.00000   .0726   .0889   .6823
  11.000   1.4439    .01813   3.00000   .0694   .0725   .6939
  11.500   1.4603    .02046   3.00000   .0666   .0601   .7055
  12.000   1.4710    .02329   3.00000   .0638   .0496   .7175
  12.500   1.4806    .02636   3.00000   .0613   .0415   .7304
  13.000   1.4931    .02943   3.00000   .0593   .0375   .7435
  13.500   1.5066    .03272   3.00000   .0578   .0342   .7564
  14.000   1.5198    .03622   3.00000   .0567   .0322   .7706
  14.500   1.5300    .04021   3.00000   .0558   .0304   .7869
  15.000   1.5400    .04448   3.00000   .0551   .0287   .8029
  15.500   1.5564    .04826   3.00000   .0550   .0280   .8217
  16.000   1.5710    .05229   3.00000   .0548   .0270   .8464
  16.500   1.5782    .05713   3.00000   .0548   .0261   .8865
  17.000   1.5803    .06220   3.00000   .0543   .0252  1.0000
  17.500   1.5852    .06781   3.00000   .0548   .0240  1.0000
  18.000   1.5970    .07265   3.00000   .0555   .0232  1.0000
  18.500   1.6045    .07821   3.00000   .0566   .0225  1.0000
  19.000   1.6141    .08340   3.00000   .0575   .0216  1.0000
  19.500   1.6143    .08996   3.00000   .0590   .0207  1.0000
  20.000   1.6114    .09719   3.00000   .0608   .0198  1.0000
  20.500   1.6166    .10328   3.00000   .0625   .0187  1.0000
  21.000   1.6176    .11015   3.00000   .0647   .0178  1.0000
  21.500   1.6127    .11802   3.00000   .0674   .0167  1.0000
  22.000   1.6121    .12516   3.00000   .0700   .0154  1.0000
