#  
#       XFOIL         Version 6.1
#  
# Calculated polar for: NACA63-415                      
#  
# 1 1 Reynolds number fixed          Mach number fixed         
#  
# xtrf =   1.000 (suction)    1.000 (pressure)
# Mach =    .000     Re =     1.555 e 6     Ncrit =   9.000
#  
#   alpha     CL        CD      Re(CL)     CM     S xtr   P xtr
#  ------- -------- --------- --------- -------- ------- -------
    .000    .3626    .00558   1.55500  .0820   .5953   .5810
    .500    .4203    .00569   1.55500  .0824   .5824   .5938
   1.000    .4790    .00569   1.55500  .0829   .5716   .6065
   1.500    .5365    .00579   1.55500  .0833   .5590   .6190
   2.000    .5945    .00586   1.55500  .0838   .5470   .6312
   2.500    .6518    .00596   1.55500  .0841   .5295   .6437
   3.000    .7089    .00612   1.55500  .0844   .5140   .6562
   3.500    .7651    .00628   1.55500  .0846   .4885   .6695
   4.000    .8208    .00653   1.55500  .0847   .4617   .6822
   4.500    .8752    .00686   1.55500  .0846   .4247   .6960
   5.000    .9283    .00732   1.55500  .0844   .3792   .7095
   5.500    .9752    .00837   1.55500  .0833   .2888   .7226
   6.000   1.0203    .00957   1.55500  .0821   .1983   .7372
   6.500   1.0661    .01068   1.55500  .0810   .1312   .7512
   7.000   1.1108    .01183   1.55500  .0797   .0771   .7658
   7.500   1.1563    .01281   1.55500  .0785   .0473   .7816
   8.000   1.2034    .01358   1.55500  .0775   .0374   .7974
   8.500   1.2506    .01426   1.55500  .0766   .0328   .8149
   9.000   1.2955    .01503   1.55500  .0753   .0294   .8331
   9.500   1.3369    .01593   1.55500  .0735   .0261   .8552
  10.000   1.3782    .01655   1.55500  .0717   .0241   .8820
  10.500   1.4089    .01749   1.55500  .0681   .0217   .9264
  11.000   1.4364    .01857   1.55500  .0645   .0196  1.0000
  11.500   1.4691    .01978   1.55500  .0624   .0177  1.0000
  12.000   1.4889    .02189   1.55500  .0592   .0153  1.0000
  12.500   1.5168    .02354   1.55500  .0571   .0144  1.0000
  13.000   1.5385    .02571   1.55500  .0549   .0134  1.0000
  13.500   1.5536    .02847   1.55500  .0524   .0125  1.0000
  14.000   1.5570    .03233   1.55500  .0498   .0116  1.0000
  14.500   1.5614    .03626   1.55500  .0477   .0110  1.0000
  15.000   1.5740    .03978   1.55500  .0465   .0107  1.0000
  15.500   1.5818    .04402   1.55500  .0457   .0103  1.0000
  16.000   1.5866    .04882   1.55500  .0452   .0099  1.0000
  16.500   1.5887    .05431   1.55500  .0454   .0095  1.0000
  17.000   1.5875    .06058   1.55500  .0462   .0092  1.0000
  17.500   1.5807    .06786   1.55500  .0476   .0088  1.0000
  18.000   1.5626    .07710   1.55500  .0501   .0085  1.0000
  18.500   1.5365    .08828   1.55500  .0539   .0082  1.0000
  19.000   1.5030    .10133   1.55500  .0592   .0080  1.0000
  19.500   1.4896    .11164   1.55500  .0638   .0079  1.0000
  20.000   1.4800    .12145   1.55500  .0686   .0078  1.0000
  20.500   1.4610    .13357   1.55500  .0750   .0077  1.0000
  21.000   1.4407    .14629   1.55500  .0820   .0076  1.0000
  21.500   1.4132    .16114   1.55500  .0910   .0075  1.0000
  22.000   1.3847    .17675   1.55500  .1009   .0075  1.0000
