#  
#       XFOIL         Version 6.1
#  
# Calculated polar for: AirfoilName                     
#  
# 1 1 Reynolds number fixed          Mach number fixed         
#  
# xtrf =   1.000 (suction)    1.000 (pressure)
# Mach =    .000     Re =     3.000 e 6     Ncrit =   9.000
#  
#   alpha     CL        CD      Re(CL)     CM     S xtr   P xtr
#  ------- -------- --------- --------- -------- ------- -------
    .000    .1858    .00474   3.00000   .0420   .5575   .5513
    .500    .2451    .00477   3.00000   .0427   .5459   .5630
   1.000    .3042    .00479   3.00000   .0434   .5329   .5765
   1.500    .3629    .00489   3.00000   .0440   .5138   .5880
   2.000    .4216    .00495   3.00000   .0446   .4981   .6006
   2.500    .4798    .00511   3.00000   .0451   .4702   .6124
   3.000    .5378    .00525   3.00000   .0456   .4458   .6240
   3.500    .5937    .00566   3.00000   .0459   .3898   .6365
   4.000    .6486    .00618   3.00000   .0460   .3244   .6487
   4.500    .7018    .00692   3.00000   .0460   .2432   .6609
   5.000    .7542    .00775   3.00000   .0459   .1644   .6732
   5.500    .8072    .00847   3.00000   .0459   .1076   .6870
   6.000    .8600    .00922   3.00000   .0459   .0626   .6985
   6.500    .9135    .00980   3.00000   .0459   .0413   .7129
   7.000    .9674    .01030   3.00000   .0459   .0333   .7264
   7.500   1.0219    .01069   3.00000   .0461   .0305   .7391
   8.000   1.0749    .01121   3.00000   .0460   .0272   .7538
   8.500   1.1280    .01169   3.00000   .0460   .0249   .7670
   9.000   1.1811    .01212   3.00000   .0460   .0228   .7824
   9.500   1.2311    .01283   3.00000   .0456   .0194   .7981
  10.000   1.2826    .01328   3.00000   .0454   .0178   .8147
  10.500   1.3297    .01407   3.00000   .0446   .0150   .8325
  11.000   1.3776    .01470   3.00000   .0440   .0137   .8525
  11.500   1.4219    .01551   3.00000   .0429   .0125   .8780
  12.000   1.4597    .01660   3.00000   .0409   .0111   .9134
  12.500   1.4928    .01736   3.00000   .0379   .0105  1.0000
  13.000   1.5260    .01846   3.00000   .0358   .0101  1.0000
  13.500   1.5540    .01995   3.00000   .0335   .0096  1.0000
  14.000   1.5776    .02182   3.00000   .0312   .0092  1.0000
  14.500   1.5965    .02413   3.00000   .0290   .0088  1.0000
  15.000   1.6102    .02696   3.00000   .0269   .0084  1.0000
  15.500   1.6167    .03054   3.00000   .0249   .0081  1.0000
  16.000   1.6111    .03531   3.00000   .0230   .0077  1.0000
  17.000   1.6283    .04342   3.00000   .0222   .0075  1.0000
  17.500   1.6371    .04784   3.00000   .0225   .0073  1.0000
  18.000   1.6412    .05315   3.00000   .0233   .0072  1.0000
  18.500   1.6397    .05953   3.00000   .0249   .0071  1.0000
  19.000   1.6359    .06652   3.00000   .0270   .0069  1.0000
  19.500   1.6260    .07460   3.00000   .0298   .0068  1.0000
  20.000   1.6123    .08378   3.00000   .0336   .0067  1.0000
  20.500   1.5939    .09421   3.00000   .0384   .0066  1.0000
  21.000   1.5705    .10593   3.00000   .0442   .0065  1.0000
  21.500   1.5385    .11977   3.00000   .0518   .0064  1.0000
  22.000   1.4980    .13589   3.00000   .0611   .0064  1.0000
