#  
#       XFOIL         Version 6.1
#  
# Calculated polar for: RISO_A118                       
#  
# 1 1 Reynolds number fixed          Mach number fixed         
#  
# xtrf =   1.000 (suction)    1.000 (pressure)
# Mach =    .000     Re =     1.600 e 6     Ncrit =   9.000
#  
#   alpha     CL        CD      Re(CL)     CM     S xtr   P xtr
#  ------- -------- --------- --------- -------- ------- -------
    .000    .4309    .00702   1.60000   .0797   .4871   .5481
    .500    .4903    .00719   1.60000   .0805   .4838   .5571
   1.000    .5498    .00741   1.60000   .0813   .4811   .5645
   1.500    .6098    .00736   1.60000   .0822   .4801   .5737
   2.000    .6698    .00733   1.60000   .0831   .4779   .5815
   2.500    .7298    .00729   1.60000   .0839   .4739   .5881
   3.000    .7895    .00726   1.60000   .0848   .4702   .5968
   3.500    .8487    .00734   1.60000   .0857   .4658   .6033
   4.000    .9073    .00761   1.60000   .0864   .4617   .6090
   4.500    .9669    .00755   1.60000   .0873   .4591   .6173
   5.000   1.0263    .00756   1.60000   .0883   .4559   .6237
   5.500   1.0854    .00763   1.60000   .0891   .4524   .6298
   6.000   1.1442    .00770   1.60000   .0900   .4477   .6363
   6.500   1.2018    .00789   1.60000   .0907   .4407   .6435
   7.000   1.2610    .00788   1.60000   .0917   .4355   .6495
   7.500   1.3190    .00802   1.60000   .0925   .4263   .6546
   8.000   1.3765    .00815   1.60000   .0932   .4123   .6632
   8.500   1.4287    .00887   1.60000   .0934   .3610   .6696
   9.000   1.4712    .01069   1.60000   .0926   .2783   .6758
   9.500   1.5176    .01187   1.60000   .0922   .2396   .6841
  10.000   1.5625    .01307   1.60000   .0917   .2066   .6914
  10.500   1.6065    .01422   1.60000   .0910   .1825   .6988
  11.000   1.6458    .01553   1.60000   .0899   .1555   .7092
  11.500   1.6645    .01792   1.60000   .0864   .1165   .7184
  12.000   1.6405    .02268   1.60000   .0809   .0875   .7312
  12.500   1.5987    .03182   1.60000   .0809   .0718   .7456
  13.000   1.5577    .04038   1.60000   .0795   .0573   .7642
  13.500   1.5285    .04840   1.60000   .0788   .0422   .7988
  14.000   1.5175    .05456   1.60000   .0782   .0304  1.0000
  14.500   1.5167    .06056   1.60000   .0784   .0233  1.0000
  15.000   1.5168    .06683   1.60000   .0790   .0189  1.0000
  15.500   1.5248    .07215   1.60000   .0796   .0159  1.0000
  16.000   1.5245    .07875   1.60000   .0806   .0135  1.0000
  16.500   1.5329    .08426   1.60000   .0815   .0123  1.0000
  17.000   1.5334    .09110   1.60000   .0829   .0111  1.0000
  17.500   1.5280    .09907   1.60000   .0848   .0100  1.0000
  18.000   1.5373    .10478   1.60000   .0862   .0094  1.0000
  18.500   1.5359    .11240   1.60000   .0884   .0089  1.0000
  19.000   1.5318    .12051   1.60000   .0910   .0084  1.0000
  19.500   1.5244    .12924   1.60000   .0940   .0079  1.0000
  20.000   1.5058    .14042   1.60000   .0984   .0074  1.0000
  20.500   1.4850    .15240   1.60000   .1036   .0070  1.0000
  21.000   1.4856    .16045   1.60000   .1074   .0068  1.0000
  21.500   1.4774    .17036   1.60000   .1124   .0066  1.0000
  22.000   1.4666    .18102   1.60000   .1182   .0064  1.0000
