#  
#       XFOIL         Version 6.1
#  
# Calculated polar for: AirfoilName                     
#  
# 1 1 Reynolds number fixed          Mach number fixed         
#  
# xtrf =   1.000 (suction)    1.000 (pressure)
# Mach =    .000     Re =     9.000 e 6     Ncrit =   9.000
#  
#   alpha     CL        CD      Re(CL)     CM     S xtr   P xtr
#  ------- -------- --------- --------- -------- ------- -------
    .000    .1906    .00428   9.00000   .0421   .4822   .4758
    .500    .2510    .00430   9.00000   .0430   .4717   .4864
   1.000    .3112    .00437   9.00000   .0439   .4558   .4951
   1.500    .3712    .00443   9.00000   .0448   .4416   .5057
   2.000    .4311    .00451   9.00000   .0457   .4275   .5149
   2.500    .4903    .00466   9.00000   .0465   .4047   .5262
   3.000    .5489    .00486   9.00000   .0472   .3733   .5356
   3.500    .6048    .00537   9.00000   .0475   .3091   .5437
   4.000    .6601    .00592   9.00000   .0478   .2465   .5526
   4.500    .7159    .00639   9.00000   .0481   .1979   .5613
   5.000    .7720    .00684   9.00000   .0485   .1598   .5711
   5.500    .8273    .00734   9.00000   .0488   .1226   .5798
   6.000    .8827    .00781   9.00000   .0491   .0952   .5875
   6.500    .9379    .00827   9.00000   .0494   .0727   .5978
   7.000    .9920    .00881   9.00000   .0496   .0515   .6077
   7.500   1.0460    .00932   9.00000   .0497   .0368   .6188
   8.000   1.1009    .00970   9.00000   .0500   .0318   .6286
   8.500   1.1553    .01010   9.00000   .0502   .0292   .6378
   9.000   1.2092    .01051   9.00000   .0503   .0269   .6496
   9.500   1.2629    .01089   9.00000   .0504   .0255   .6604
  10.000   1.3156    .01130   9.00000   .0505   .0243   .6724
  10.500   1.3666    .01181   9.00000   .0502   .0229   .6832
  11.000   1.4163    .01235   9.00000   .0499   .0211   .6972
  11.500   1.4658    .01284   9.00000   .0495   .0202   .7081
  12.000   1.5122    .01346   9.00000   .0488   .0185   .7229
  12.500   1.5515    .01419   9.00000   .0469   .0168   .7356
  13.000   1.5877    .01506   9.00000   .0449   .0153   .7495
  13.500   1.6172    .01631   9.00000   .0426   .0137   .7652
  14.000   1.6454    .01773   9.00000   .0405   .0122   .7796
  14.500   1.6698    .01947   9.00000   .0384   .0112   .7975
  15.000   1.6903    .02156   9.00000   .0363   .0103   .8181
  15.500   1.7092    .02387   9.00000   .0344   .0094   .8412
  16.000   1.7256    .02639   9.00000   .0327   .0091   .8717
  16.500   1.7367    .02908   9.00000   .0305   .0088  1.0000
  17.000   1.7484    .03242   9.00000   .0293   .0085  1.0000
  17.500   1.7576    .03617   9.00000   .0284   .0082  1.0000
  18.000   1.7656    .04038   9.00000   .0279   .0079  1.0000
  18.500   1.7717    .04501   9.00000   .0278   .0076  1.0000
  19.000   1.7754    .05005   9.00000   .0280   .0073  1.0000
  19.500   1.7758    .05567   9.00000   .0286   .0069  1.0000
  20.500   1.7767    .06778   9.00000   .0311   .0066  1.0000
  21.000   1.7775    .07407   9.00000   .0328   .0065  1.0000
  21.500   1.7754    .08081   9.00000   .0348   .0065  1.0000
  22.000   1.7716    .08793   9.00000   .0372   .0064  1.0000
