#  
#       XFOIL         Version 6.1
#  
# Calculated polar for: FFA_W3_241                      
#  
# 1 1 Reynolds number fixed          Mach number fixed         
#  
# xtrf =   1.000 (suction)    1.000 (pressure)
# Mach =    .000     Re =     1.450 e 6     Ncrit =   9.000
#  
#   alpha     CL        CD      Re(CL)     CM     S xtr   P xtr
#  ------- -------- --------- --------- -------- ------- -------
    .000    .2917    .00763   1.45000   .0787   .4428   .4755
    .500    .3528    .00772   1.45000   .0796   .4334   .4800
   1.000    .4132    .00793   1.45000   .0803   .4229   .4835
   1.500    .4745    .00794   1.45000   .0812   .4150   .4891
   2.000    .5354    .00800   1.45000   .0821   .4064   .4948
   2.500    .5952    .00820   1.45000   .0828   .3967   .4996
   3.000    .6557    .00831   1.45000   .0835   .3886   .5037
   3.500    .7158    .00846   1.45000   .0842   .3810   .5072
   4.000    .7746    .00876   1.45000   .0847   .3710   .5096
   4.500    .8347    .00881   1.45000   .0854   .3631   .5168
   5.000    .8942    .00895   1.45000   .0861   .3548   .5215
   5.500    .9521    .00924   1.45000   .0865   .3449   .5253
   6.000   1.0110    .00942   1.45000   .0869   .3365   .5292
   6.500   1.0689    .00969   1.45000   .0873   .3275   .5330
   7.000   1.1245    .01014   1.45000   .0874   .3156   .5354
   7.500   1.1831    .01025   1.45000   .0879   .3075   .5408
   8.000   1.2385    .01063   1.45000   .0880   .2959   .5459
   8.500   1.2944    .01094   1.45000   .0881   .2850   .5501
   9.000   1.3477    .01144   1.45000   .0879   .2726   .5542
   9.500   1.4014    .01186   1.45000   .0878   .2603   .5578
  10.000   1.4513    .01252   1.45000   .0871   .2461   .5608
  10.500   1.5018    .01308   1.45000   .0865   .2337   .5627
  11.000   1.5493    .01372   1.45000   .0857   .2194   .5696
  11.500   1.5921    .01458   1.45000   .0843   .2047   .5746
  12.000   1.6316    .01544   1.45000   .0823   .1907   .5785
  12.500   1.6597    .01660   1.45000   .0790   .1764   .5820
  13.000   1.6799    .01829   1.45000   .0754   .1624   .5855
  13.500   1.6951    .02046   1.45000   .0721   .1499   .5883
  14.000   1.7052    .02323   1.45000   .0692   .1381   .5902
  14.500   1.7053    .02701   1.45000   .0668   .1270   .5964
  15.000   1.6984    .03167   1.45000   .0648   .1177   .6009
  15.500   1.6889    .03705   1.45000   .0636   .1094   .6041
  16.000   1.6698    .04399   1.45000   .0633   .1021   .6070
  16.500   1.6574    .05100   1.45000   .0640   .0951   .6099
  17.000   1.6374    .05929   1.45000   .0653   .0883   .6126
  17.500   1.6232    .06735   1.45000   .0670   .0826   .6151
  18.000   1.5993    .07717   1.45000   .0697   .0773   .6169
  18.500   1.5888    .08540   1.45000   .0720   .0726   .6184
  19.000   1.5672    .09552   1.45000   .0754   .0680   .6235
  19.500   1.5547    .10460   1.45000   .0786   .0641   .6279
  20.000   1.5340    .11524   1.45000   .0827   .0602   .6309
  20.500   1.5203    .12503   1.45000   .0866   .0565   .6338
  21.000   1.5123    .13380   1.45000   .0903   .0532   .6368
  21.500   1.4960    .14411   1.45000   .0950   .0501   .6394
  22.000   1.4839    .15407   1.45000   .0998   .0476   .6421
