#  
#       XFOIL         Version 6.1
#  
# Calculated polar for: NASA-GAW2                       
#  
# 1 1 Reynolds number fixed          Mach number fixed         
#  
# xtrf =   1.000 (suction)    1.000 (pressure)
# Mach =    .000     Re =     1.500 e 6     Ncrit =   9.000
#  
#   alpha     CL        CD      Re(CL)     CM     S xtr   P xtr
#  ------- -------- --------- --------- -------- ------- -------
    .000    .4780    .00483   1.50000   .1080   .7251   .6779
    .500    .5355    .00497   1.50000   .1083   .7040   .6857
   1.000    .5920    .00508   1.50000   .1084   .6783   .6975
   1.500    .6464    .00540   1.50000   .1082   .6240   .7045
   2.000    .6958    .00619   1.50000   .1071   .5131   .7106
   2.500    .7417    .00733   1.50000   .1056   .3683   .7174
   3.000    .7916    .00816   1.50000   .1049   .2781   .7233
   3.500    .8420    .00895   1.50000   .1042   .2054   .7289
   4.000    .8933    .00959   1.50000   .1037   .1554   .7354
   4.500    .9456    .01009   1.50000   .1034   .1279   .7420
   5.000    .9979    .01060   1.50000   .1030   .1083   .7478
   5.500   1.0503    .01110   1.50000   .1026   .0938   .7532
   6.000   1.1012    .01163   1.50000   .1020   .0823   .7615
   6.500   1.1532    .01204   1.50000   .1015   .0762   .7681
   7.000   1.2016    .01280   1.50000   .1005   .0670   .7744
   7.500   1.2534    .01310   1.50000   .1001   .0641   .7825
   8.000   1.3019    .01371   1.50000   .0991   .0594   .7903
   8.500   1.3464    .01463   1.50000   .0975   .0534   .7978
   9.000   1.3958    .01498   1.50000   .0967   .0515   .8068
   9.500   1.4415    .01562   1.50000   .0954   .0483   .8155
  10.000   1.4820    .01656   1.50000   .0931   .0446   .8259
  10.500   1.5199    .01738   1.50000   .0905   .0417   .8363
  11.000   1.5614    .01795   1.50000   .0885   .0396   .8479
  11.500   1.5965    .01887   1.50000   .0856   .0372   .8605
  12.000   1.6236    .02025   1.50000   .0816   .0341   .8778
  12.500   1.6583    .02108   1.50000   .0790   .0322   .8996
  13.000   1.6856    .02196   1.50000   .0751   .0303  1.0000
  13.500   1.7134    .02349   1.50000   .0721   .0283  1.0000
  14.000   1.7316    .02569   1.50000   .0681   .0258  1.0000
  14.500   1.7624    .02703   1.50000   .0658   .0246  1.0000
  15.000   1.7850    .02900   1.50000   .0629   .0230  1.0000
  15.500   1.8000    .03157   1.50000   .0596   .0212  1.0000
  16.000   1.8125    .03446   1.50000   .0564   .0195  1.0000
  16.500   1.8274    .03722   1.50000   .0539   .0182  1.0000
  17.000   1.8331    .04087   1.50000   .0511   .0167  1.0000
  17.500   1.8295    .04586   1.50000   .0488   .0150  1.0000
  18.000   1.8365    .05009   1.50000   .0475   .0140  1.0000
  18.500   1.8322    .05592   1.50000   .0468   .0129  1.0000
  19.000   1.8173    .06343   1.50000   .0470   .0119  1.0000
  19.500   1.7936    .07306   1.50000   .0491   .0110  1.0000
  20.000   1.7746    .08285   1.50000   .0524   .0105  1.0000
  20.500   1.7383    .09640   1.50000   .0586   .0102  1.0000
  21.000   1.6815    .11493   1.50000   .0690   .0101  1.0000
  21.500   1.5921    .14205   1.50000   .0861   .0104  1.0000
