# 
#      XFOIL         Version 6.1
# 
#Calculated polar for: NACA63-215                      
# 
#1 1 Reynolds number fixed          Mach number fixed         
# 
#xtrf =   1.000 (suction)    1.000 (pressure)
#Mach =    .000     Re =     1.087 e 6     Ncrit =   9.000
# 
#  alpha     CL        CD      Re(CL)     CM     S xtr   P xtr
# ------- -------- --------- --------- -------- ------- -------
    .000    .1816    .00609   1.08700   .0410   .6108   .6039
    .500    .2402    .00612   1.08700   .0416   .5985   .6166
   1.000    .2990    .00619   1.08700   .0422   .5864   .6286
   1.500    .3576    .00620   1.08700   .0428   .5738   .6411
   2.000    .4158    .00634   1.08700   .0433   .5604   .6530
   2.500    .4740    .00636   1.08700   .0438   .5430   .6664
   3.000    .5321    .00647   1.08700   .0443   .5250   .6789
   3.500    .5894    .00662   1.08700   .0446   .5004   .6919
   4.000    .6462    .00683   1.08700   .0449   .4692   .7054
   4.500    .7024    .00714   1.08700   .0452   .4324   .7181
   5.000    .7568    .00760   1.08700   .0452   .3767   .7320
   5.500    .8065    .00868   1.08700   .0448   .2751   .7458
   6.000    .8535    .01004   1.08700   .0442   .1672   .7594
   6.500    .9017    .01120   1.08700   .0436   .0975   .7741
   7.000    .9503    .01228   1.08700   .0431   .0551   .7887
   7.500    .9998    .01313   1.08700   .0426   .0418   .8043
   8.000   1.0502    .01374   1.08700   .0422   .0371   .8206
   8.500   1.0969    .01471   1.08700   .0413   .0324   .8382
   9.000   1.1457    .01530   1.08700   .0406   .0299   .8577
   9.500   1.1883    .01632   1.08700   .0392   .0267   .8804
  10.000   1.2291    .01722   1.08700   .0374   .0242   .9103
  10.500   1.2658    .01791   1.08700   .0348   .0219   .9675
  11.000   1.2898    .01998   1.08700   .0319   .0193  1.0000
  11.500   1.3292    .02093   1.08700   .0309   .0182  1.0000
  12.000   1.3578    .02263   1.08700   .0291   .0171  1.0000
  12.500   1.3804    .02482   1.08700   .0272   .0161  1.0000
  13.000   1.3879    .02831   1.08700   .0248   .0151  1.0000
  13.500   1.3914    .03233   1.08700   .0229   .0144  1.0000
  14.000   1.4101    .03523   1.08700   .0221   .0139  1.0000
  14.500   1.4210    .03893   1.08700   .0213   .0134  1.0000
  15.000   1.4282    .04322   1.08700   .0209   .0129  1.0000
  15.500   1.4320    .04818   1.08700   .0211   .0125  1.0000
  16.000   1.4319    .05404   1.08700   .0220   .0121  1.0000
  16.500   1.4274    .06091   1.08700   .0237   .0118  1.0000
  17.000   1.4167    .06906   1.08700   .0263   .0115  1.0000
  17.500   1.3989    .07856   1.08700   .0297   .0112  1.0000
  18.000   1.3737    .08988   1.08700   .0344   .0110  1.0000
  18.500   1.3482    .10179   1.08700   .0398   .0107  1.0000
  19.000   1.3405    .11180   1.08700   .0453   .0106  1.0000
  19.500   1.3256    .12335   1.08700   .0518   .0104  1.0000
  20.000   1.3083    .13593   1.08700   .0592   .0103  1.0000
  20.500   1.2861    .15004   1.08700   .0679   .0102  1.0000
  21.000   1.2633    .16478   1.08700   .0774   .0100  1.0000
  21.500   1.2378    .18086   1.08700   .0881   .0099  1.0000
  22.000   1.2081    .19878   1.08700   .1004   .0098  1.0000
