#  
#       XFOIL         Version 6.1
#  
# Calculated polar for: AirfoilName                     
#  
# 1 1 Reynolds number fixed          Mach number fixed         
#  
# xtrf =   1.000 (suction)    1.000 (pressure)
# Mach =    .000     Re =     3.000 e 6     Ncrit =   9.000
#  
#   alpha     CL        CD      Re(CL)     CM     S xtr   P xtr
#  ------- -------- --------- --------- -------- ------- -------
    .000    .3679    .00485   3.00000   .0831   .5607   .5467
    .500    .4268    .00485   3.00000   .0838   .5501   .5606
   1.000    .4850    .00493   3.00000   .0843   .5373   .5734
   1.500    .5431    .00500   3.00000   .0847   .5238   .5858
   2.000    .6007    .00510   3.00000   .0852   .5053   .5981
   2.500    .6584    .00521   3.00000   .0856   .4901   .6097
   3.000    .7144    .00544   3.00000   .0857   .4596   .6223
   3.500    .7704    .00568   3.00000   .0859   .4310   .6334
   4.000    .8242    .00610   3.00000   .0857   .3801   .6474
   4.500    .8761    .00670   3.00000   .0853   .3191   .6589
   5.000    .9246    .00763   3.00000   .0845   .2329   .6721
   5.500    .9735    .00852   3.00000   .0837   .1633   .6857
   6.000   1.0233    .00931   3.00000   .0831   .1131   .6984
   6.500   1.0718    .01018   3.00000   .0823   .0665   .7120
   7.000   1.1213    .01092   3.00000   .0816   .0424   .7255
   7.500   1.1722    .01148   3.00000   .0812   .0337   .7398
   8.000   1.2227    .01203   3.00000   .0807   .0298   .7545
   8.500   1.2722    .01261   3.00000   .0801   .0262   .7685
   9.000   1.3223    .01308   3.00000   .0796   .0244   .7848
   9.500   1.3692    .01375   3.00000   .0786   .0219   .8020
  10.000   1.4155    .01438   3.00000   .0775   .0197   .8197
  10.500   1.4599    .01505   3.00000   .0763   .0173   .8404
  11.000   1.4979    .01586   3.00000   .0739   .0148   .8651
  11.500   1.5337    .01670   3.00000   .0714   .0133   .9017
  12.000   1.5555    .01784   3.00000   .0668   .0115  1.0000
  12.500   1.5857    .01909   3.00000   .0642   .0108  1.0000
  13.000   1.6124    .02065   3.00000   .0616   .0101  1.0000
  13.500   1.6338    .02262   3.00000   .0589   .0095  1.0000
  14.000   1.6500    .02507   3.00000   .0560   .0089  1.0000
  14.500   1.6589    .02822   3.00000   .0531   .0081  1.0000
  15.500   1.6880    .03399   3.00000   .0493   .0077  1.0000
  16.000   1.6987    .03754   3.00000   .0479   .0074  1.0000
  16.500   1.7067    .04161   3.00000   .0468   .0072  1.0000
  17.000   1.7098    .04641   3.00000   .0462   .0069  1.0000
  17.500   1.7118    .05171   3.00000   .0461   .0067  1.0000
  18.000   1.7114    .05764   3.00000   .0465   .0065  1.0000
  18.500   1.7050    .06463   3.00000   .0476   .0063  1.0000
  19.000   1.6950    .07235   3.00000   .0493   .0061  1.0000
  19.500   1.6808    .08108   3.00000   .0518   .0059  1.0000
  20.000   1.6576    .09179   3.00000   .0556   .0057  1.0000
  20.500   1.6282    .10406   3.00000   .0607   .0056  1.0000
  21.000   1.5894    .11857   3.00000   .0676   .0054  1.0000
  21.500   1.5558    .13276   3.00000   .0749   .0054  1.0000
  22.000   1.5320    .14580   3.00000   .0821   .0053  1.0000
