#  
#       XFOIL         Version 6.1
#  
# Calculated polar for: RISO_A121                       
#  
# 1 1 Reynolds number fixed          Mach number fixed         
#  
# xtrf =   1.000 (suction)    1.000 (pressure)
# Mach =    .000     Re =     1.600 e 6     Ncrit =   9.000
#  
#   alpha     CL        CD      Re(CL)     CM     S xtr   P xtr
#  ------- -------- --------- --------- -------- ------- -------
    .000    .3793    .00732   1.60000   .0755   .3969   .5457
    .500    .4402    .00739   1.60000   .0765   .3928   .5526
   1.000    .5007    .00754   1.60000   .0775   .3885   .5574
   1.500    .5608    .00766   1.60000   .0785   .3834   .5650
   2.000    .6204    .00787   1.60000   .0794   .3776   .5703
   2.500    .6813    .00793   1.60000   .0804   .3751   .5756
   3.000    .7417    .00807   1.60000   .0814   .3714   .5800
   3.500    .8016    .00816   1.60000   .0824   .3676   .5868
   4.000    .8609    .00835   1.60000   .0833   .3635   .5916
   4.500    .9193    .00865   1.60000   .0841   .3579   .5957
   5.000    .9789    .00880   1.60000   .0850   .3551   .5996
   5.500   1.0386    .00893   1.60000   .0860   .3521   .6027
   6.000   1.0978    .00905   1.60000   .0869   .3487   .6069
   6.500   1.1562    .00923   1.60000   .0877   .3451   .6121
   7.000   1.2137    .00952   1.60000   .0885   .3409   .6156
   7.500   1.2696    .00996   1.60000   .0890   .3353   .6189
   8.000   1.3287    .01003   1.60000   .0899   .3332   .6226
   8.500   1.3873    .01014   1.60000   .0908   .3266   .6256
   9.000   1.4426    .01054   1.60000   .0913   .3174   .6283
   9.500   1.5003    .01065   1.60000   .0921   .3095   .6338
  10.000   1.5550    .01103   1.60000   .0926   .2990   .6381
  10.500   1.6091    .01144   1.60000   .0929   .2841   .6415
  11.000   1.6569    .01236   1.60000   .0925   .2559   .6449
  11.500   1.6775    .01528   1.60000   .0890   .1735   .6479
  12.000   1.6504    .01995   1.60000   .0797   .0953   .6504
  12.500   1.6227    .02500   1.60000   .0741   .0677   .6550
  13.000   1.5853    .03310   1.60000   .0731   .0556   .6590
  13.500   1.5372    .04354   1.60000   .0740   .0500   .6617
  14.000   1.4907    .05480   1.60000   .0759   .0455   .6641
  14.500   1.4585    .06531   1.60000   .0781   .0390   .6665
  15.000   1.4304    .07611   1.60000   .0809   .0331   .6689
  15.500   1.4142    .08546   1.60000   .0834   .0286   .6713
  16.000   1.4046    .09406   1.60000   .0858   .0245   .6736
  16.500   1.3971    .10259   1.60000   .0883   .0213   .6777
  17.000   1.3927    .11098   1.60000   .0911   .0193   .6823
  17.500   1.3904    .11893   1.60000   .0937   .0173   .6859
  18.000   1.3879    .12705   1.60000   .0966   .0158   .6894
  18.500   1.3907    .13423   1.60000   .0992   .0147   .6930
  19.000   1.3871    .14273   1.60000   .1025   .0137   .6961
  19.500   1.3824    .15159   1.60000   .1062   .0124   .7006
  20.000   1.3891    .15847   1.60000   .1094   .0118   .7064
  20.500   1.3968    .16505   1.60000   .1125   .0111   .7119
  21.000   1.3940    .17383   1.60000   .1169   .0105   .7173
  21.500   1.3956    .18165   1.60000   .1209   .0098   .7243
  22.000   1.3887    .19145   1.60000   .1264   .0092   .7313
