#  
#       XFOIL         Version 6.1
#  
# Calculated polar for: NACA63-430                      
#  
# 1 1 Reynolds number fixed          Mach number fixed         
#  
# xtrf =   1.000 (suction)    1.000 (pressure)
# Mach =    .000     Re =     1.450 e 6     Ncrit =   9.000
#  
#   alpha     CL        CD      Re(CL)     CM     S xtr   P xtr
#  ------- -------- --------- --------- -------- ------- -------
    .000    .3393    .00851   1.45000   .0683   .4980   .4882
    .500    .3975    .00864   1.45000   .0693   .4911   .4935
   1.000    .4587    .00864   1.45000   .0709   .4875   .4985
   1.500    .5199    .00868   1.45000   .0724   .4838   .5026
   2.000    .5800    .00879   1.45000   .0738   .4797   .5058
   2.500    .6382    .00890   1.45000   .0748   .4748   .5108
   3.000    .6944    .00905   1.45000   .0757   .4689   .5181
   3.500    .7516    .00924   1.45000   .0767   .4632   .5240
   4.000    .8110    .00929   1.45000   .0780   .4604   .5289
   4.500    .8690    .00942   1.45000   .0790   .4564   .5330
   5.000    .9246    .00960   1.45000   .0797   .4520   .5375
   5.500    .9758    .00981   1.45000   .0798   .4470   .5456
   6.000   1.0206    .01016   1.45000   .0788   .4401   .5516
   6.500   1.0751    .01036   1.45000   .0795   .4368   .5575
   7.000   1.1284    .01064   1.45000   .0801   .4327   .5624
   7.500   1.1786    .01102   1.45000   .0804   .4275   .5692
   8.000   1.2193    .01173   1.45000   .0796   .4195   .5771
   8.500   1.2636    .01236   1.45000   .0793   .4126   .5835
   9.000   1.3119    .01287   1.45000   .0795   .4073   .5894
   9.500   1.3498    .01383   1.45000   .0786   .4004   .5933
  10.000   1.3768    .01526   1.45000   .0768   .3915   .6033
  10.500   1.4211    .01602   1.45000   .0769   .3843   .6116
  11.000   1.4469    .01766   1.45000   .0753   .3747   .6182
  11.500   1.4658    .01977   1.45000   .0732   .3638   .6231
  12.000   1.4869    .02194   1.45000   .0716   .3519   .6316
  12.500   1.5023    .02464   1.45000   .0698   .3381   .6399
  13.000   1.5019    .02862   1.45000   .0673   .3222   .6469
  13.500   1.5004    .03301   1.45000   .0652   .3039   .6532
  14.000   1.4923    .03825   1.45000   .0632   .2846   .6603
  14.500   1.4834    .04386   1.45000   .0616   .2674   .6691
  15.000   1.4692    .05028   1.45000   .0602   .2503   .6760
  15.500   1.4543    .05712   1.45000   .0593   .2336   .6824
  16.000   1.4502    .06300   1.45000   .0588   .2176   .6873
  16.500   1.4444    .06927   1.45000   .0587   .2022   .6983
  17.000   1.4306    .07677   1.45000   .0588   .1880   .7064
  17.500   1.4212    .08397   1.45000   .0593   .1749   .7137
  18.000   1.4246    .08972   1.45000   .0599   .1629   .7199
  18.500   1.4148    .09728   1.45000   .0610   .1520   .7300
  19.000   1.4216    .10280   1.45000   .0621   .1427   .7391
  19.500   1.4160    .11015   1.45000   .0636   .1337   .7474
  20.000   1.4213    .11607   1.45000   .0651   .1251   .7583
  20.500   1.4184    .12329   1.45000   .0671   .1168   .7679
  21.000   1.4194    .12987   1.45000   .0691   .1080   .7770
  21.500   1.4201    .13672   1.45000   .0714   .1007   .7883
  22.000   1.4203    .14349   1.45000   .0739   .0934   .8000
