#  
#       XFOIL         Version 6.1
#  
# Calculated polar for: AirfoilName                     
#  
# 1 1 Reynolds number fixed          Mach number fixed         
#  
# xtrf =   1.000 (suction)    1.000 (pressure)
# Mach =    .000     Re =     9.000 e 6     Ncrit =   9.000
#  
#   alpha     CL        CD      Re(CL)     CM     S xtr   P xtr
#  ------- -------- --------- --------- -------- ------- -------
    .000    .3793    .00464   9.00000   .0818   .4680   .4591
    .500    .4404    .00465   9.00000   .0829   .4612   .4666
   1.000    .5010    .00471   9.00000   .0839   .4546   .4728
   1.500    .5613    .00477   9.00000   .0849   .4467   .4820
   2.000    .6215    .00483   9.00000   .0859   .4360   .4905
   2.500    .6807    .00496   9.00000   .0867   .4235   .4978
   3.000    .7406    .00503   9.00000   .0876   .4140   .5073
   3.500    .7997    .00515   9.00000   .0884   .4039   .5145
   4.000    .8579    .00533   9.00000   .0891   .3858   .5203
   4.500    .9138    .00564   9.00000   .0894   .3584   .5294
   5.000    .9669    .00613   9.00000   .0893   .3153   .5378
   5.500   1.0184    .00674   9.00000   .0889   .2695   .5444
   6.000   1.0683    .00744   9.00000   .0884   .2219   .5520
   6.500   1.1194    .00803   9.00000   .0881   .1857   .5603
   7.000   1.1706    .00859   9.00000   .0878   .1591   .5676
   7.500   1.2217    .00913   9.00000   .0875   .1367   .5755
   8.000   1.2701    .00977   9.00000   .0868   .1116   .5855
   8.500   1.3173    .01043   9.00000   .0860   .0926   .5939
   9.000   1.3621    .01115   9.00000   .0848   .0758   .6024
   9.500   1.3998    .01196   9.00000   .0825   .0576   .6113
  10.000   1.4348    .01283   9.00000   .0799   .0465   .6192
  10.500   1.4663    .01388   9.00000   .0772   .0385   .6287
  11.000   1.4968    .01507   9.00000   .0748   .0327   .6396
  11.500   1.5252    .01646   9.00000   .0725   .0294   .6488
  12.000   1.5545    .01788   9.00000   .0706   .0278   .6599
  12.500   1.5805    .01959   9.00000   .0686   .0266   .6706
  13.000   1.6029    .02157   9.00000   .0665   .0253   .6828
  13.500   1.6235    .02378   9.00000   .0645   .0242   .6936
  14.000   1.6419    .02620   9.00000   .0626   .0234   .7057
  14.500   1.6607    .02885   9.00000   .0611   .0227   .7188
  15.000   1.6756    .03202   9.00000   .0598   .0216   .7307
  15.500   1.6880    .03553   9.00000   .0586   .0207   .7431
  16.000   1.7002    .03929   9.00000   .0577   .0198   .7571
  16.500   1.7156    .04288   9.00000   .0570   .0189   .7717
  17.000   1.7290    .04685   9.00000   .0567   .0181   .7871
  17.500   1.7351    .05172   9.00000   .0565   .0169   .8038
  18.000   1.7381    .05697   9.00000   .0565   .0156   .8242
  18.500   1.7435    .06218   9.00000   .0567   .0142   .8517
  19.000   1.7470    .06765   9.00000   .0571   .0123   .9048
  19.500   1.7440    .07379   9.00000   .0575   .0109  1.0000
  20.000   1.7390    .08075   9.00000   .0586   .0099  1.0000
  20.500   1.7362    .08746   9.00000   .0599   .0090  1.0000
  21.000   1.7411    .09316   9.00000   .0611   .0085  1.0000
  21.500   1.7348    .10075   9.00000   .0632   .0082  1.0000
  22.000   1.7271    .10866   9.00000   .0655   .0078  1.0000
