#  
#       XFOIL         Version 6.1
#  
# Calculated polar for: DU93                            
#  
# 1 1 Reynolds number fixed          Mach number fixed         
#  
# xtrf =   1.000 (suction)    1.000 (pressure)
# Mach =    .000     Re =     1.000 e 6     Ncrit =   9.000
#  
#   alpha     CL        CD      Re(CL)     CM     S xtr   P xtr
#  ------- -------- --------- --------- -------- ------- -------
    .000    .4586    .00803   1.00000   .1182   .5559   .5168
    .500    .5186    .00810   1.00000   .1195   .5498   .5233
   1.000    .5784    .00807   1.00000   .1208   .5442   .5312
   1.500    .6376    .00818   1.00000   .1219   .5379   .5378
   2.000    .6961    .00841   1.00000   .1229   .5300   .5437
   2.500    .7554    .00851   1.00000   .1241   .5239   .5495
   3.000    .8145    .00851   1.00000   .1253   .5178   .5571
   3.500    .8728    .00865   1.00000   .1262   .5113   .5627
   4.000    .9300    .00893   1.00000   .1271   .5014   .5687
   4.500    .9886    .00897   1.00000   .1280   .4917   .5733
   5.000   1.0446    .00917   1.00000   .1287   .4789   .5803
   5.500   1.1023    .00923   1.00000   .1296   .4653   .5867
   6.000   1.1574    .00950   1.00000   .1300   .4467   .5920
   6.500   1.2116    .00984   1.00000   .1303   .4303   .5970
   7.000   1.2652    .01024   1.00000   .1305   .4091   .6012
   7.500   1.3155    .01072   1.00000   .1303   .3789   .6092
   8.000   1.3578    .01171   1.00000   .1288   .3240   .6145
   8.500   1.3822    .01368   1.00000   .1247   .2396   .6193
   9.000   1.3887    .01601   1.00000   .1177   .1633   .6242
   9.500   1.4033    .01796   1.00000   .1125   .1288   .6286
  10.000   1.4208    .01986   1.00000   .1084   .1095   .6356
  10.500   1.4374    .02202   1.00000   .1048   .0955   .6411
  11.000   1.4512    .02460   1.00000   .1015   .0841   .6461
  11.500   1.4596    .02778   1.00000   .0984   .0747   .6513
  12.000   1.4656    .03141   1.00000   .0957   .0674   .6560
  12.500   1.4730    .03515   1.00000   .0936   .0616   .6630
  13.000   1.4725    .03994   1.00000   .0917   .0564   .6685
  13.500   1.4831    .04407   1.00000   .0906   .0528   .6740
  14.000   1.4843    .04934   1.00000   .0897   .0492   .6793
  14.500   1.4918    .05418   1.00000   .0891   .0463   .6843
  15.000   1.5002    .05913   1.00000   .0890   .0439   .6927
  15.500   1.5005    .06526   1.00000   .0890   .0416   .6987
  16.000   1.5051    .07109   1.00000   .0893   .0398   .7048
  16.500   1.5139    .07647   1.00000   .0898   .0382   .7105
  17.000   1.5197    .08227   1.00000   .0905   .0366   .7192
  17.500   1.5150    .08975   1.00000   .0917   .0350   .7263
  18.000   1.5149    .09677   1.00000   .0931   .0337   .7335
  18.500   1.5250    .10239   1.00000   .0943   .0326   .7424
  19.000   1.5272    .10935   1.00000   .0961   .0316   .7506
  19.500   1.5297    .11625   1.00000   .0981   .0307   .7591
  20.000   1.5244    .12446   1.00000   .1007   .0297   .7687
  20.500   1.5105    .13412   1.00000   .1040   .0286   .7776
  21.000   1.5164    .14078   1.00000   .1066   .0280   .7906
  21.500   1.5181    .14830   1.00000   .1098   .0272   .8054
  22.000   1.5176    .15627   1.00000   .1135   .0264   .8244
