#  
#       XFOIL         Version 6.1
#  
# Calculated polar for: AirfoilName                     
#  
# 1 1 Reynolds number fixed          Mach number fixed         
#  
# xtrf =   1.000 (suction)    1.000 (pressure)
# Mach =    .000     Re =     9.000 e 6     Ncrit =   9.000
#  
#   alpha     CL        CD      Re(CL)     CM     S xtr   P xtr
#  ------- -------- --------- --------- -------- ------- -------
    .000    .3755    .00363   9.00000   .0868   .5816   .5709
    .500    .4341    .00366   9.00000   .0876   .5702   .5859
   1.000    .4918    .00373   9.00000   .0883   .5553   .5975
   1.500    .5496    .00380   9.00000   .0889   .5414   .6084
   2.000    .6026    .00418   9.00000   .0887   .4790   .6147
   2.500    .6459    .00530   9.00000   .0869   .3197   .6193
   3.000    .6956    .00600   9.00000   .0862   .2279   .6273
   3.500    .7458    .00668   9.00000   .0856   .1462   .6339
   4.000    .7974    .00725   9.00000   .0853   .0903   .6400
   4.500    .8497    .00775   9.00000   .0851   .0524   .6483
   5.000    .9025    .00819   9.00000   .0851   .0310   .6558
   5.500    .9562    .00853   9.00000   .0851   .0240   .6623
   6.000   1.0098    .00887   9.00000   .0852   .0201   .6722
   6.500   1.0631    .00919   9.00000   .0853   .0171   .6806
   7.000   1.1154    .00957   9.00000   .0852   .0152   .6887
   7.500   1.1665    .01000   9.00000   .0848   .0130   .6982
   8.000   1.2186    .01034   9.00000   .0847   .0126   .7069
   8.500   1.2694    .01072   9.00000   .0845   .0117   .7182
   9.000   1.3183    .01121   9.00000   .0839   .0108   .7270
   9.500   1.3657    .01173   9.00000   .0830   .0100   .7386
  10.500   1.4544    .01276   9.00000   .0803   .0089   .7640
  11.000   1.4978    .01327   9.00000   .0789   .0085   .7774
  11.500   1.5367    .01395   9.00000   .0768   .0080   .7908
  12.000   1.5707    .01480   9.00000   .0741   .0075   .8063
  12.500   1.6025    .01582   9.00000   .0713   .0069   .8234
  13.000   1.6298    .01712   9.00000   .0680   .0061   .8426
  13.500   1.6612    .01820   9.00000   .0656   .0060   .8633
  14.000   1.6921    .01934   9.00000   .0634   .0059   .8885
  14.500   1.7200    .02067   9.00000   .0609   .0057   .9239
  15.000   1.7402    .02220   9.00000   .0574   .0055  1.0000
  15.500   1.7610    .02419   9.00000   .0547   .0052  1.0000
  16.000   1.7788    .02641   9.00000   .0520   .0050  1.0000
  16.500   1.7935    .02896   9.00000   .0492   .0048  1.0000
  17.000   1.8077    .03179   9.00000   .0469   .0046  1.0000
  17.500   1.8202    .03494   9.00000   .0449   .0044  1.0000
  18.000   1.8296    .03850   9.00000   .0430   .0042  1.0000
  19.000   1.8395    .04710   9.00000   .0401   .0037  1.0000
  19.500   1.8527    .05092   9.00000   .0396   .0037  1.0000
  20.000   1.8616    .05532   9.00000   .0394   .0037  1.0000
  20.500   1.8684    .06013   9.00000   .0394   .0037  1.0000
  21.000   1.8738    .06515   9.00000   .0397   .0036  1.0000
  21.500   1.8735    .07107   9.00000   .0404   .0035  1.0000
  22.000   1.8704    .07763   9.00000   .0416   .0035  1.0000
