#  
#       XFOIL         Version 6.1
#  
# Calculated polar for: AirfoilName                     
#  
# 1 1 Reynolds number fixed          Mach number fixed         
#  
# xtrf =   1.000 (suction)    1.000 (pressure)
# Mach =    .000     Re =     9.000 e 6     Ncrit =   9.000
#  
#   alpha     CL        CD      Re(CL)     CM     S xtr   P xtr
#  ------- -------- --------- --------- -------- ------- -------
    .000    .3778    .00435   9.00000   .0834   .4854   .4714
    .500    .4375    .00441   9.00000   .0842   .4756   .4840
   1.000    .4972    .00444   9.00000   .0850   .4640   .4937
   1.500    .5559    .00457   9.00000   .0857   .4466   .5027
   2.000    .6150    .00464   9.00000   .0864   .4352   .5132
   2.500    .6737    .00475   9.00000   .0870   .4198   .5225
   3.000    .7309    .00495   9.00000   .0875   .3941   .5339
   3.500    .7859    .00532   9.00000   .0875   .3515   .5424
   4.000    .8404    .00574   9.00000   .0875   .3094   .5506
   4.500    .8906    .00649   9.00000   .0869   .2381   .5594
   5.000    .9428    .00708   9.00000   .0866   .1877   .5678
   5.500    .9961    .00758   9.00000   .0865   .1546   .5785
   6.000   1.0494    .00805   9.00000   .0864   .1249   .5872
   6.500   1.1014    .00861   9.00000   .0861   .0985   .5958
   7.000   1.1533    .00914   9.00000   .0859   .0747   .6059
   7.500   1.2032    .00979   9.00000   .0853   .0526   .6154
   8.000   1.2525    .01044   9.00000   .0847   .0363   .6275
   8.500   1.3038    .01090   9.00000   .0844   .0312   .6373
   9.000   1.3541    .01137   9.00000   .0839   .0280   .6479
   9.500   1.4042    .01182   9.00000   .0835   .0260   .6595
  10.000   1.4520    .01235   9.00000   .0827   .0243   .6719
  10.500   1.4980    .01291   9.00000   .0817   .0228   .6833
  11.000   1.5360    .01350   9.00000   .0791   .0214   .6968
  11.500   1.5801    .01408   9.00000   .0780   .0208   .7095
  12.000   1.6140    .01496   9.00000   .0755   .0192   .7233
  12.500   1.6446    .01606   9.00000   .0729   .0176   .7368
  13.000   1.6749    .01726   9.00000   .0705   .0164   .7524
  13.500   1.7005    .01883   9.00000   .0680   .0148   .7674
  14.000   1.7209    .02077   9.00000   .0653   .0132   .7836
  14.500   1.7413    .02287   9.00000   .0629   .0119   .8030
  15.000   1.7558    .02539   9.00000   .0604   .0108   .8242
  15.500   1.7684    .02825   9.00000   .0581   .0096   .8511
  16.000   1.7803    .03138   9.00000   .0563   .0090   .8994
  16.500   1.7866    .03484   9.00000   .0541   .0084  1.0000
  17.000   1.7945    .03890   9.00000   .0529   .0079  1.0000
  17.500   1.8024    .04321   9.00000   .0522   .0074  1.0000
  18.000   1.8084    .04788   9.00000   .0517   .0069  1.0000
  18.500   1.8161    .05245   9.00000   .0515   .0068  1.0000
  19.000   1.8219    .05748   9.00000   .0516   .0066  1.0000
  19.500   1.8276    .06266   9.00000   .0520   .0064  1.0000
  20.000   1.8273    .06876   9.00000   .0528   .0062  1.0000
  20.500   1.8246    .07535   9.00000   .0540   .0060  1.0000
  21.000   1.8182    .08247   9.00000   .0555   .0058  1.0000
  21.500   1.8109    .09002   9.00000   .0574   .0056  1.0000
  22.000   1.8015    .09810   9.00000   .0598   .0055  1.0000
