#  
#       XFOIL         Version 6.1
#  
# Calculated polar for: AirfoilName                     
#  
# 1 1 Reynolds number fixed          Mach number fixed         
#  
# xtrf =   1.000 (suction)    1.000 (pressure)
# Mach =    .000     Re =     3.000 e 6     Ncrit =   9.000
#  
#   alpha     CL        CD      Re(CL)     CM     S xtr   P xtr
#  ------- -------- --------- --------- -------- ------- -------
    .000    .1867    .00514   3.00000   .0412   .5290   .5222
    .500    .2468    .00515   3.00000   .0421   .5198   .5323
   1.000    .3069    .00522   3.00000   .0430   .5095   .5409
   1.500    .3671    .00522   3.00000   .0439   .5011   .5522
   2.000    .4267    .00532   3.00000   .0447   .4879   .5604
   2.500    .4865    .00538   3.00000   .0455   .4751   .5699
   3.000    .5459    .00547   3.00000   .0463   .4618   .5799
   3.500    .6047    .00565   3.00000   .0470   .4415   .5878
   4.000    .6631    .00581   3.00000   .0477   .4202   .5988
   4.500    .7204    .00611   3.00000   .0482   .3856   .6076
   5.000    .7750    .00668   3.00000   .0484   .3275   .6186
   5.500    .8285    .00735   3.00000   .0485   .2701   .6291
   6.000    .8806    .00815   3.00000   .0484   .2082   .6390
   6.500    .9319    .00898   3.00000   .0483   .1522   .6498
   7.000    .9838    .00972   3.00000   .0482   .1148   .6593
   7.500   1.0351    .01044   3.00000   .0481   .0848   .6726
   8.000   1.0846    .01128   3.00000   .0477   .0581   .6826
   8.500   1.1337    .01207   3.00000   .0473   .0416   .6957
   9.000   1.1840    .01268   3.00000   .0470   .0361   .7071
   9.500   1.2324    .01337   3.00000   .0465   .0320   .7210
  10.000   1.2815    .01392   3.00000   .0461   .0304   .7328
  10.500   1.3268    .01464   3.00000   .0452   .0286   .7477
  11.000   1.3641    .01553   3.00000   .0431   .0267   .7612
  11.500   1.4012    .01647   3.00000   .0415   .0255   .7763
  12.000   1.4374    .01748   3.00000   .0401   .0246   .7932
  12.500   1.4685    .01885   3.00000   .0383   .0233   .8105
  13.000   1.4934    .02066   3.00000   .0364   .0217   .8311
  13.500   1.5165    .02266   3.00000   .0346   .0204   .8564
  14.000   1.5427    .02451   3.00000   .0332   .0195   .8906
  14.500   1.5563    .02681   3.00000   .0306   .0183  1.0000
  15.000   1.5693    .02992   3.00000   .0291   .0169  1.0000
  15.500   1.5829    .03315   3.00000   .0280   .0157  1.0000
  16.000   1.5955    .03666   3.00000   .0272   .0147  1.0000
  16.500   1.6041    .04085   3.00000   .0268   .0138  1.0000
  17.000   1.6075    .04584   3.00000   .0267   .0125  1.0000
  17.500   1.6172    .05038   3.00000   .0270   .0121  1.0000
  18.000   1.6234    .05546   3.00000   .0277   .0116  1.0000
  18.500   1.6266    .06122   3.00000   .0287   .0111  1.0000
  19.000   1.6265    .06758   3.00000   .0302   .0107  1.0000
  19.500   1.6229    .07460   3.00000   .0321   .0103  1.0000
  20.000   1.6146    .08239   3.00000   .0345   .0098  1.0000
  20.500   1.6011    .09132   3.00000   .0377   .0094  1.0000
  21.000   1.5929    .09983   3.00000   .0410   .0092  1.0000
  21.500   1.5865    .10822   3.00000   .0447   .0091  1.0000
  22.000   1.5769    .11736   3.00000   .0489   .0089  1.0000
