#  
#       XFOIL         Version 6.1
#  
# Calculated polar for: FFA_W3_301                      
#  
# 1 1 Reynolds number fixed          Mach number fixed         
#  
# xtrf =   1.000 (suction)    1.000 (pressure)
# Mach =    .000     Re =     1.470 e 6     Ncrit =   9.000
#  
#   alpha     CL        CD      Re(CL)     CM     S xtr   P xtr
#  ------- -------- --------- --------- -------- ------- -------
    .000    .2245    .00905   1.47000   .0719   .3847   .4366
    .500    .2880    .00910   1.47000   .0732   .3762   .4411
   1.000    .3519    .00909   1.47000   .0747   .3683   .4491
   1.500    .4140    .00924   1.47000   .0759   .3586   .4549
   2.000    .4764    .00935   1.47000   .0769   .3502   .4596
   2.500    .5386    .00950   1.47000   .0779   .3433   .4633
   3.000    .5999    .00964   1.47000   .0789   .3355   .4706
   3.500    .6606    .00985   1.47000   .0798   .3261   .4764
   4.000    .7230    .00993   1.47000   .0809   .3207   .4814
   4.500    .7831    .01016   1.47000   .0816   .3142   .4862
   5.000    .8410    .01053   1.47000   .0819   .3060   .4892
   5.500    .9012    .01067   1.47000   .0827   .2998   .4957
   6.000    .9615    .01083   1.47000   .0834   .2945   .5020
   6.500   1.0189    .01114   1.47000   .0837   .2884   .5070
   7.000   1.0730    .01161   1.47000   .0836   .2802   .5112
   7.500   1.1308    .01185   1.47000   .0839   .2760   .5146
   8.000   1.1870    .01213   1.47000   .0840   .2711   .5186
   8.500   1.2404    .01250   1.47000   .0838   .2652   .5259
   9.000   1.2884    .01308   1.47000   .0828   .2584   .5307
   9.500   1.3377    .01341   1.47000   .0819   .2542   .5349
  10.000   1.3867    .01381   1.47000   .0810   .2496   .5392
  10.500   1.4292    .01450   1.47000   .0794   .2448   .5425
  11.000   1.4638    .01550   1.47000   .0770   .2386   .5451
  11.500   1.5051    .01625   1.47000   .0757   .2340   .5522
  12.000   1.5472    .01700   1.47000   .0746   .2299   .5575
  12.500   1.5796    .01826   1.47000   .0727   .2251   .5620
  13.000   1.6022    .02012   1.47000   .0703   .2196   .5659
  13.500   1.6266    .02201   1.47000   .0684   .2146   .5694
  14.000   1.6592    .02351   1.47000   .0672   .2106   .5720
  14.500   1.6758    .02611   1.47000   .0654   .2059   .5743
  15.000   1.6808    .02973   1.47000   .0638   .2005   .5811
  15.500   1.6916    .03330   1.47000   .0629   .1957   .5864
  16.000   1.7065    .03682   1.47000   .0625   .1915   .5904
  16.500   1.7049    .04197   1.47000   .0622   .1867   .5936
  17.000   1.6878    .04909   1.47000   .0625   .1807   .5964
  17.500   1.7033    .05312   1.47000   .0629   .1767   .5996
  18.000   1.7005    .05930   1.47000   .0638   .1719   .6019
  18.500   1.6769    .06799   1.47000   .0654   .1665   .6034
  19.000   1.6665    .07564   1.47000   .0673   .1615   .6072
  19.500   1.6570    .08352   1.47000   .0696   .1567   .6126
  20.000   1.6276    .09410   1.47000   .0730   .1510   .6160
  20.500   1.6275    .10072   1.47000   .0750   .1460   .6196
  21.000   1.6101    .11004   1.47000   .0783   .1409   .6224
  21.500   1.5743    .12231   1.47000   .0831   .1345   .6246
  22.000   1.5821    .12821   1.47000   .0853   .1303   .6278
