#  
#       XFOIL         Version 6.1
#  
# Calculated polar for: AirfoilName                     
#  
# 1 1 Reynolds number fixed          Mach number fixed         
#  
# xtrf =   1.000 (suction)    1.000 (pressure)
# Mach =    .000     Re =     6.000 e 6     Ncrit =   9.000
#  
#   alpha     CL        CD      Re(CL)     CM     S xtr   P xtr
#  ------- -------- --------- --------- -------- ------- -------
    .000    .1881    .00424   6.00000   .0425   .5217   .5133
    .500    .2474    .00426   6.00000   .0432   .5066   .5285
   1.000    .3063    .00434   6.00000   .0439   .4862   .5404
   1.500    .3653    .00440   6.00000   .0445   .4699   .5538
   2.000    .4233    .00459   6.00000   .0451   .4365   .5651
   2.500    .4815    .00473   6.00000   .0456   .4107   .5781
   3.000    .5363    .00531   6.00000   .0457   .3236   .5887
   3.500    .5915    .00582   6.00000   .0459   .2547   .6011
   4.000    .6465    .00637   6.00000   .0461   .1915   .6114
   4.500    .7016    .00689   6.00000   .0463   .1390   .6240
   5.000    .7563    .00744   6.00000   .0465   .0929   .6362
   5.500    .8106    .00802   6.00000   .0466   .0552   .6476
   6.000    .8660    .00844   6.00000   .0468   .0388   .6603
   6.500    .9215    .00879   6.00000   .0470   .0316   .6728
   7.000    .9769    .00915   6.00000   .0473   .0284   .6857
   7.500   1.0319    .00953   6.00000   .0474   .0252   .6977
   8.000   1.0874    .00982   6.00000   .0477   .0238   .7123
   8.500   1.1414    .01026   6.00000   .0478   .0211   .7248
   9.000   1.1952    .01066   6.00000   .0479   .0190   .7385
   9.500   1.2478    .01114   6.00000   .0478   .0165   .7526
  10.000   1.2997    .01167   6.00000   .0477   .0141   .7659
  10.500   1.3502    .01226   6.00000   .0474   .0122   .7817
  11.500   1.4488    .01347   6.00000   .0464   .0101   .8152
  12.000   1.4953    .01419   6.00000   .0456   .0093   .8334
  12.500   1.5387    .01505   6.00000   .0444   .0084   .8559
  13.500   1.6144    .01677   6.00000   .0404   .0075   .9319
  14.000   1.6444    .01768   6.00000   .0375   .0074  1.0000
  14.500   1.6736    .01900   6.00000   .0352   .0072  1.0000
  15.000   1.6996    .02061   6.00000   .0330   .0070  1.0000
  15.500   1.7216    .02258   6.00000   .0309   .0068  1.0000
  16.000   1.7399    .02495   6.00000   .0289   .0066  1.0000
  16.500   1.7537    .02773   6.00000   .0269   .0064  1.0000
  17.000   1.7624    .03109   6.00000   .0252   .0062  1.0000
  17.500   1.7658    .03499   6.00000   .0237   .0059  1.0000
  18.000   1.7644    .03989   6.00000   .0229   .0056  1.0000
  18.500   1.7508    .04648   6.00000   .0229   .0052  1.0000
  19.500   1.7482    .05835   6.00000   .0248   .0050  1.0000
  20.000   1.7488    .06459   6.00000   .0266   .0050  1.0000
  20.500   1.7449    .07163   6.00000   .0290   .0050  1.0000
  21.000   1.7377    .07926   6.00000   .0317   .0049  1.0000
  21.500   1.7286    .08760   6.00000   .0351   .0049  1.0000
  22.000   1.7079    .09826   6.00000   .0401   .0049  1.0000
