#  
#       XFOIL         Version 6.1
#  
# Calculated polar for: AirfoilName                     
#  
# 1 1 Reynolds number fixed          Mach number fixed         
#  
# xtrf =   1.000 (suction)    1.000 (pressure)
# Mach =    .000     Re =     3.000 e 6     Ncrit =   9.000
#  
#   alpha     CL        CD      Re(CL)     CM     S xtr   P xtr
#  ------- -------- --------- --------- -------- ------- -------
    .000    .3647    .00576   3.00000   .0797   .5123   .5109
    .500    .4256    .00575   3.00000   .0808   .5101   .5148
   1.000    .4861    .00578   3.00000   .0819   .5066   .5182
   1.500    .5459    .00586   3.00000   .0829   .5020   .5208
   2.000    .6051    .00594   3.00000   .0838   .4972   .5267
   2.500    .6639    .00602   3.00000   .0846   .4919   .5339
   3.000    .7239    .00605   3.00000   .0857   .4878   .5396
   3.500    .7842    .00608   3.00000   .0868   .4816   .5447
   4.000    .8426    .00620   3.00000   .0876   .4746   .5515
   4.500    .9007    .00631   3.00000   .0883   .4647   .5601
   5.000    .9602    .00635   3.00000   .0893   .4581   .5675
   5.500   1.0167    .00658   3.00000   .0898   .4438   .5747
   6.000   1.0716    .00687   3.00000   .0901   .4119   .5850
   6.500   1.1157    .00783   3.00000   .0887   .3417   .5933
   7.000   1.1542    .00909   3.00000   .0865   .2663   .6024
   7.500   1.1909    .01033   3.00000   .0842   .2017   .6129
   8.000   1.2267    .01145   3.00000   .0816   .1547   .6218
   8.500   1.2546    .01257   3.00000   .0778   .1199   .6337
   9.000   1.2848    .01375   3.00000   .0749   .0969   .6443
   9.500   1.3107    .01518   3.00000   .0719   .0791   .6565
  10.000   1.3346    .01682   3.00000   .0690   .0657   .6692
  10.500   1.3566    .01870   3.00000   .0664   .0549   .6821
  11.000   1.3752    .02088   3.00000   .0637   .0463   .6944
  11.500   1.3930    .02328   3.00000   .0613   .0397   .7067
  12.000   1.4080    .02593   3.00000   .0590   .0345   .7196
  12.500   1.4232    .02882   3.00000   .0570   .0312   .7325
  13.000   1.4399    .03182   3.00000   .0556   .0285   .7463
  13.500   1.4558    .03503   3.00000   .0543   .0267   .7607
  14.000   1.4695    .03862   3.00000   .0532   .0248   .7752
  14.500   1.4883    .04190   3.00000   .0525   .0234   .7917
  15.000   1.5030    .04576   3.00000   .0520   .0222   .8087
  15.500   1.5146    .05002   3.00000   .0516   .0210   .8268
  16.000   1.5252    .05432   3.00000   .0512   .0194   .8504
  16.500   1.5407    .05835   3.00000   .0511   .0188   .8889
  17.000   1.5489    .06264   3.00000   .0504   .0179  1.0000
  17.500   1.5617    .06714   3.00000   .0507   .0170  1.0000
  18.000   1.5656    .07289   3.00000   .0512   .0159  1.0000
  18.500   1.5758    .07789   3.00000   .0519   .0151  1.0000
  19.000   1.5855    .08305   3.00000   .0528   .0147  1.0000
  19.500   1.5922    .08868   3.00000   .0538   .0142  1.0000
  20.000   1.5994    .09428   3.00000   .0550   .0137  1.0000
  20.500   1.5992    .10111   3.00000   .0568   .0133  1.0000
  21.000   1.6031    .10730   3.00000   .0584   .0127  1.0000
  21.500   1.5943    .11565   3.00000   .0610   .0120  1.0000
  22.000   1.5911    .12329   3.00000   .0638   .0118  1.0000
