#  
#       XFOIL         Version 6.1
#  
# Calculated polar for: AirfoilName                     
#  
# 1 1 Reynolds number fixed          Mach number fixed         
#  
# xtrf =   1.000 (suction)    1.000 (pressure)
# Mach =    .000     Re =     6.000 e 6     Ncrit =   9.000
#  
#   alpha     CL        CD      Re(CL)     CM     S xtr   P xtr
#  ------- -------- --------- --------- -------- ------- -------
    .000    .3765    .00493   6.00000   .0811   .4840   .4714
    .500    .4371    .00497   6.00000   .0822   .4767   .4803
   1.000    .4973    .00502   6.00000   .0832   .4684   .4887
   1.500    .5580    .00506   6.00000   .0842   .4618   .4955
   2.000    .6182    .00511   6.00000   .0852   .4550   .5051
   2.500    .6775    .00522   6.00000   .0860   .4437   .5134
   3.000    .7371    .00531   6.00000   .0869   .4329   .5195
   3.500    .7960    .00544   6.00000   .0877   .4231   .5273
   4.000    .8554    .00553   6.00000   .0885   .4134   .5364
   4.500    .9128    .00575   6.00000   .0891   .3954   .5436
   5.000    .9695    .00600   6.00000   .0895   .3754   .5511
   5.500   1.0219    .00653   6.00000   .0893   .3323   .5597
   6.000   1.0730    .00714   6.00000   .0890   .2891   .5671
   6.500   1.1217    .00790   6.00000   .0883   .2412   .5743
   7.000   1.1712    .00857   6.00000   .0877   .2040   .5843
   7.500   1.2196    .00926   6.00000   .0870   .1700   .5930
   8.000   1.2674    .00994   6.00000   .0863   .1448   .6016
   8.500   1.3123    .01072   6.00000   .0852   .1187   .6108
   9.000   1.3559    .01147   6.00000   .0838   .0981   .6189
   9.500   1.3891    .01229   6.00000   .0806   .0808   .6279
  10.000   1.4214    .01345   6.00000   .0780   .0637   .6385
  10.500   1.4489    .01476   6.00000   .0751   .0516   .6474
  11.000   1.4739    .01631   6.00000   .0724   .0419   .6592
  11.500   1.4962    .01813   6.00000   .0698   .0352   .6691
  12.000   1.5212    .01993   6.00000   .0677   .0323   .6812
  12.500   1.5420    .02205   6.00000   .0655   .0296   .6927
  13.000   1.5638    .02423   6.00000   .0637   .0281   .7036
  13.500   1.5816    .02671   6.00000   .0618   .0271   .7169
  14.000   1.5972    .02963   6.00000   .0601   .0260   .7293
  14.500   1.6120    .03286   6.00000   .0588   .0249   .7420
  15.000   1.6244    .03641   6.00000   .0576   .0238   .7549
  15.500   1.6404    .03992   6.00000   .0570   .0232   .7701
  16.000   1.6546    .04373   6.00000   .0565   .0224   .7860
  16.500   1.6699    .04750   6.00000   .0561   .0214   .8011
  17.000   1.6778    .05224   6.00000   .0560   .0205   .8219
  17.500   1.6835    .05726   6.00000   .0560   .0196   .8473
  18.000   1.6905    .06236   6.00000   .0564   .0188   .8915
  18.500   1.7022    .06645   6.00000   .0561   .0179  1.0000
  19.000   1.7030    .07254   6.00000   .0569   .0167  1.0000
  19.500   1.7017    .07906   6.00000   .0579   .0155  1.0000
  20.000   1.7084    .08446   6.00000   .0589   .0138  1.0000
  20.500   1.7017    .09179   6.00000   .0604   .0125  1.0000
  21.000   1.6947    .09949   6.00000   .0624   .0112  1.0000
  21.500   1.6880    .10730   6.00000   .0647   .0103  1.0000
  22.000   1.6874    .11416   6.00000   .0668   .0094  1.0000
