#  
#       XFOIL         Version 6.1
#  
# Calculated polar for: RISO_A124                       
#  
# 1 1 Reynolds number fixed          Mach number fixed         
#  
# xtrf =   1.000 (suction)    1.000 (pressure)
# Mach =    .000     Re =     1.600 e 6     Ncrit =   9.000
#  
#   alpha     CL        CD      Re(CL)     CM     S xtr   P xtr
#  ------- -------- --------- --------- -------- ------- -------
    .000    .4165    .00772   1.60000   .1007   .4053   .4923
    .500    .4792    .00779   1.60000   .1022   .4009   .5002
   1.000    .5412    .00794   1.60000   .1036   .3965   .5065
   1.500    .6033    .00810   1.60000   .1051   .3907   .5147
   2.000    .6653    .00823   1.60000   .1065   .3870   .5213
   2.500    .7274    .00831   1.60000   .1079   .3843   .5261
   3.000    .7894    .00839   1.60000   .1093   .3806   .5321
   3.500    .8509    .00853   1.60000   .1106   .3766   .5381
   4.000    .9116    .00876   1.60000   .1118   .3722   .5429
   4.500    .9712    .00912   1.60000   .1128   .3666   .5476
   5.000   1.0324    .00922   1.60000   .1141   .3644   .5529
   5.500   1.0936    .00929   1.60000   .1153   .3614   .5584
   6.000   1.1539    .00946   1.60000   .1164   .3581   .5622
   6.500   1.2135    .00969   1.60000   .1174   .3546   .5659
   7.000   1.2723    .01001   1.60000   .1183   .3505   .5692
   7.500   1.3298    .01043   1.60000   .1190   .3438   .5716
   8.000   1.3911    .01035   1.60000   .1203   .3378   .5764
   8.500   1.4492    .01061   1.60000   .1212   .3303   .5806
   9.000   1.5062    .01095   1.60000   .1218   .3215   .5839
   9.500   1.5637    .01121   1.60000   .1226   .3110   .5868
  10.000   1.6185    .01170   1.60000   .1230   .2943   .5898
  10.500   1.6674    .01267   1.60000   .1226   .2637   .5925
  11.000   1.6849    .01597   1.60000   .1184   .1708   .5946
  11.500   1.6428    .02123   1.60000   .1067   .0827   .5973
  12.000   1.6139    .02640   1.60000   .1005   .0562   .6010
  12.500   1.5783    .03428   1.60000   .0987   .0451   .6034
  13.000   1.5324    .04461   1.60000   .0991   .0398   .6053
  13.500   1.4874    .05579   1.60000   .1005   .0359   .6068
  14.000   1.4585    .06599   1.60000   .1024   .0310   .6087
  14.500   1.4368    .07599   1.60000   .1046   .0264   .6106
  15.000   1.4237    .08505   1.60000   .1068   .0231   .6126
  15.500   1.4141    .09380   1.60000   .1090   .0204   .6144
  16.000   1.4063    .10258   1.60000   .1114   .0186   .6160
  16.500   1.3974    .11171   1.60000   .1141   .0165   .6174
  17.000   1.4031    .11851   1.60000   .1161   .0154   .6186
  17.500   1.4001    .12702   1.60000   .1190   .0143   .6217
  18.000   1.3983    .13505   1.60000   .1218   .0131   .6249
  18.500   1.3973    .14338   1.60000   .1249   .0124   .6277
  19.000   1.4055    .14999   1.60000   .1275   .0117   .6302
  19.500   1.4083    .15772   1.60000   .1307   .0111   .6323
  20.000   1.4092    .16575   1.60000   .1343   .0105   .6344
  20.500   1.4088    .17406   1.60000   .1382   .0098   .6364
  21.000   1.4070    .18280   1.60000   .1426   .0093   .6384
  21.500   1.4186    .18879   1.60000   .1457   .0089   .6405
  22.000   1.4186    .19724   1.60000   .1503   .0086   .6419
