#  
#       XFOIL         Version 6.1
#  
# Calculated polar for: FFA_W3_211                      
#  
# 1 1 Reynolds number fixed          Mach number fixed         
#  
# xtrf =    .050 (suction)     .100 (pressure)
# Mach =    .000     Re =     1.775 e 6     Ncrit =   9.000
#  
#   alpha     CL        CD      Re(CL)     CM     S xtr   P xtr
#  ------- -------- --------- --------- -------- ------- -------
    .000    .3343    .01200   1.77500   .0790   .0500   .1000
    .500    .3949    .01208   1.77500   .0801   .0500   .1000
   1.000    .4553    .01219   1.77500   .0812   .0500   .1000
   1.500    .5155    .01232   1.77500   .0822   .0500   .1000
   2.000    .5754    .01246   1.77500   .0832   .0500   .1000
   2.500    .6350    .01263   1.77500   .0842   .0500   .1000
   3.000    .6943    .01281   1.77500   .0851   .0500   .1000
   3.500    .7533    .01302   1.77500   .0860   .0500   .1000
   4.000    .8120    .01324   1.77500   .0868   .0500   .1000
   4.500    .8702    .01349   1.77500   .0875   .0500   .1000
   5.000    .9280    .01376   1.77500   .0882   .0500   .1000
   5.500    .9853    .01406   1.77500   .0889   .0500   .1000
   6.000   1.0420    .01438   1.77500   .0894   .0500   .1000
   6.500   1.0981    .01473   1.77500   .0899   .0500   .1000
   7.000   1.1536    .01511   1.77500   .0903   .0500   .1000
   7.500   1.2082    .01552   1.77500   .0906   .0500   .1000
   8.000   1.2619    .01596   1.77500   .0908   .0500   .1000
   8.500   1.3144    .01645   1.77500   .0908   .0500   .1000
   9.000   1.3657    .01698   1.77500   .0907   .0500   .1000
   9.500   1.4152    .01757   1.77500   .0904   .0500   .1000
  10.000   1.4624    .01823   1.77500   .0898   .0500   .1000
  10.500   1.5065    .01897   1.77500   .0889   .0500   .1000
  11.000   1.5400    .01988   1.77500   .0865   .0500   .1000
  11.500   1.5709    .02121   1.77500   .0846   .0500   .1000
  12.000   1.5966    .02302   1.77500   .0829   .0500   .1000
  12.500   1.6174    .02542   1.77500   .0815   .0500   .1000
  13.000   1.6329    .02842   1.77500   .0803   .0500   .1000
  13.500   1.6429    .03205   1.77500   .0792   .0500   .1000
  14.000   1.6425    .03681   1.77500   .0783   .0482   .1000
  14.500   1.6313    .04291   1.77500   .0779   .0446   .1000
  15.000   1.6162    .05027   1.77500   .0785   .0409   .1000
  15.500   1.6083    .05730   1.77500   .0795   .0376   .1000
  16.000   1.5983    .06498   1.77500   .0810   .0348   .1000
  16.500   1.5893    .07290   1.77500   .0829   .0319   .1000
  17.000   1.5843    .08058   1.77500   .0849   .0298   .1000
  17.500   1.5740    .08906   1.77500   .0873   .0278   .1000
  18.000   1.5652    .09764   1.77500   .0900   .0259   .1000
  18.500   1.5619    .10567   1.77500   .0927   .0246   .1000
  19.000   1.5603    .11335   1.77500   .0952   .0231   .1000
  19.500   1.5486    .12292   1.77500   .0989   .0214   .1000
  20.000   1.5444    .13135   1.77500   .1023   .0204   .1000
  20.500   1.5467    .13861   1.77500   .1053   .0194   .1000
  21.000   1.5383    .14805   1.77500   .1096   .0185   .1000
  21.500   1.5281    .15793   1.77500   .1144   .0175   .1000
  22.000   1.5222    .16711   1.77500   .1191   .0165   .1000
