#  
#       XFOIL         Version 6.1
#  
# Calculated polar for: AirfoilName                     
#  
# 1 1 Reynolds number fixed          Mach number fixed         
#  
# xtrf =   1.000 (suction)    1.000 (pressure)
# Mach =    .000     Re =     6.000 e 6     Ncrit =   9.000
#  
#   alpha     CL        CD      Re(CL)     CM     S xtr   P xtr
#  ------- -------- --------- --------- -------- ------- -------
    .000    .3728    .00385   6.00000   .0862   .6012   .5934
    .500    .4314    .00387   6.00000   .0870   .5911   .6062
   1.000    .4893    .00393   6.00000   .0877   .5797   .6151
   1.500    .5474    .00401   6.00000   .0884   .5667   .6194
   2.000    .6044    .00413   6.00000   .0889   .5451   .6279
   2.500    .6566    .00456   6.00000   .0886   .4796   .6345
   3.000    .6992    .00574   6.00000   .0866   .3240   .6400
   3.500    .7471    .00659   6.00000   .0857   .2225   .6484
   4.000    .7961    .00735   6.00000   .0850   .1404   .6561
   4.500    .8458    .00805   6.00000   .0844   .0801   .6622
   5.000    .8968    .00863   6.00000   .0840   .0428   .6719
   5.500    .9491    .00907   6.00000   .0839   .0285   .6802
   6.000   1.0020    .00944   6.00000   .0839   .0228   .6885
   6.500   1.0540    .00986   6.00000   .0837   .0186   .6977
   7.000   1.1062    .01022   6.00000   .0836   .0168   .7059
   7.500   1.1570    .01064   6.00000   .0832   .0152   .7175
   8.000   1.2049    .01125   6.00000   .0823   .0128   .7266
   8.500   1.2554    .01161   6.00000   .0821   .0126   .7379
   9.000   1.3044    .01204   6.00000   .0815   .0119   .7484
   9.500   1.3508    .01257   6.00000   .0805   .0112   .7622
  10.000   1.3902    .01318   6.00000   .0782   .0104   .7754
  10.500   1.4264    .01420   6.00000   .0756   .0090   .7893
  11.000   1.4675    .01473   6.00000   .0740   .0089   .8042
  11.500   1.5054    .01543   6.00000   .0720   .0087   .8199
  12.000   1.5407    .01630   6.00000   .0698   .0084   .8374
  12.500   1.5731    .01733   6.00000   .0673   .0079   .8571
  13.000   1.6022    .01858   6.00000   .0646   .0074   .8808
  13.500   1.6272    .02009   6.00000   .0616   .0069   .9127
  14.000   1.6361    .02236   6.00000   .0566   .0061   .9686
  14.500   1.6642    .02384   6.00000   .0546   .0060  1.0000
  15.000   1.6902    .02556   6.00000   .0525   .0059  1.0000
  15.500   1.7120    .02755   6.00000   .0503   .0058  1.0000
  16.000   1.7311    .02986   6.00000   .0480   .0057  1.0000
  16.500   1.7484    .03251   6.00000   .0460   .0055  1.0000
  17.000   1.7635    .03549   6.00000   .0442   .0053  1.0000
  17.500   1.7760    .03881   6.00000   .0425   .0052  1.0000
  18.000   1.7858    .04253   6.00000   .0411   .0050  1.0000
  18.500   1.7938    .04671   6.00000   .0400   .0048  1.0000
  19.000   1.7984    .05142   6.00000   .0392   .0046  1.0000
  19.500   1.7973    .05698   6.00000   .0387   .0043  1.0000
  20.000   1.7807    .06463   6.00000   .0388   .0039  1.0000
  21.500   1.7619    .08609   6.00000   .0430   .0037  1.0000
  22.000   1.7585    .09344   6.00000   .0454   .0037  1.0000
