#  
#       XFOIL         Version 6.1
#  
# Calculated polar for: AirfoilName                     
#  
# 1 1 Reynolds number fixed          Mach number fixed         
#  
# xtrf =   1.000 (suction)    1.000 (pressure)
# Mach =    .000     Re =     6.000 e 6     Ncrit =   9.000
#  
#   alpha     CL        CD      Re(CL)     CM     S xtr   P xtr
#  ------- -------- --------- --------- -------- ------- -------
    .000    .1902    .00484   6.00000   .0410   .4806   .4753
    .500    .2516    .00485   6.00000   .0422   .4735   .4832
   1.000    .3128    .00492   6.00000   .0433   .4651   .4893
   1.500    .3742    .00492   6.00000   .0445   .4583   .4996
   2.000    .4353    .00496   6.00000   .0456   .4498   .5081
   2.500    .4958    .00508   6.00000   .0467   .4359   .5137
   3.000    .5567    .00513   6.00000   .0478   .4276   .5227
   3.500    .6169    .00523   6.00000   .0488   .4168   .5312
   4.000    .6768    .00537   6.00000   .0498   .4014   .5377
   4.500    .7354    .00562   6.00000   .0505   .3761   .5456
   5.000    .7928    .00596   6.00000   .0512   .3425   .5538
   5.500    .8475    .00653   6.00000   .0515   .2933   .5609
   6.000    .9009    .00721   6.00000   .0516   .2425   .5689
   6.500    .9537    .00789   6.00000   .0517   .1970   .5788
   7.000   1.0072    .00848   6.00000   .0519   .1635   .5867
   7.500   1.0605    .00905   6.00000   .0521   .1389   .5949
   8.000   1.1124    .00968   6.00000   .0521   .1150   .6040
   8.500   1.1634    .01031   6.00000   .0520   .0937   .6119
   9.000   1.2118    .01106   6.00000   .0515   .0746   .6211
   9.500   1.2577    .01187   6.00000   .0508   .0569   .6317
  10.000   1.3011    .01272   6.00000   .0497   .0447   .6400
  10.500   1.3383    .01350   6.00000   .0476   .0382   .6507
  11.000   1.3735    .01456   6.00000   .0460   .0334   .6609
  11.500   1.4079    .01571   6.00000   .0445   .0315   .6720
  12.000   1.4383    .01714   6.00000   .0430   .0298   .6836
  12.500   1.4662    .01879   6.00000   .0414   .0280   .6936
  13.000   1.4964    .02039   6.00000   .0402   .0274   .7076
  13.500   1.5205    .02239   6.00000   .0387   .0266   .7183
  14.000   1.5403    .02479   6.00000   .0372   .0256   .7317
  14.500   1.5557    .02755   6.00000   .0356   .0245   .7440
  15.000   1.5717    .03055   6.00000   .0345   .0235   .7588
  15.500   1.5883    .03374   6.00000   .0338   .0227   .7706
  16.000   1.6056    .03700   6.00000   .0334   .0222   .7871
  16.500   1.6186    .04085   6.00000   .0331   .0212   .8051
  17.000   1.6290    .04514   6.00000   .0330   .0203   .8237
  17.500   1.6424    .04919   6.00000   .0331   .0191   .8466
  18.000   1.6517    .05387   6.00000   .0335   .0181   .8886
  18.500   1.6540    .05886   6.00000   .0335   .0168  1.0000
  19.000   1.6546    .06486   6.00000   .0344   .0154  1.0000
  19.500   1.6627    .06999   6.00000   .0353   .0139  1.0000
  20.000   1.6602    .07669   6.00000   .0368   .0127  1.0000
  20.500   1.6553    .08389   6.00000   .0387   .0114  1.0000
  21.000   1.6520    .09092   6.00000   .0408   .0109  1.0000
  21.500   1.6559    .09703   6.00000   .0426   .0103  1.0000
  22.000   1.6476    .10517   6.00000   .0455   .0099  1.0000
