#  
#       XFOIL         Version 6.1
#  
# Calculated polar for: NASA-GAW1                       
#  
# 1 1 Reynolds number fixed          Mach number fixed         
#  
# xtrf =   1.000 (suction)    1.000 (pressure)
# Mach =    .000     Re =     1.500 e 6     Ncrit =   9.000
#  
#   alpha     CL        CD      Re(CL)     CM     S xtr   P xtr
#  ------- -------- --------- --------- -------- ------- -------
    .000    .5623    .00560   1.50000    .1247   .6987   .6689
    .500    .6201    .00564   1.50000    .1250   .6862   .6743
   1.000    .6768    .00576   1.50000    .1251   .6694   .6794
   1.500    .7321    .00595   1.50000    .1250   .6459   .6851
   2.000    .7840    .00627   1.50000    .1242   .6040   .6900
   2.500    .8245    .00710   1.50000    .1212   .5007   .6956
   3.000    .8632    .00813   1.50000    .1181   .3993   .6999
   3.500    .9031    .00908   1.50000    .1153   .3145   .7035
   4.000    .9456    .00986   1.50000    .1130   .2561   .7069
   4.500    .9845    .01056   1.50000    .1100   .2105   .7105
   5.000   1.0258    .01127   1.50000    .1075   .1770   .7138
   5.500   1.0715    .01192   1.50000    .1059   .1521   .7169
   6.000   1.1166    .01251   1.50000    .1043   .1332   .7227
   6.500   1.1588    .01315   1.50000    .1021   .1196   .7272
   7.000   1.1992    .01377   1.50000    .0996   .1086   .7313
   7.500   1.2383    .01446   1.50000    .0970   .0991   .7357
   8.000   1.2761    .01524   1.50000    .0943   .0917   .7400
   8.500   1.3137    .01604   1.50000    .0917   .0850   .7431
   9.000   1.3493    .01694   1.50000    .0889   .0789   .7500
   9.500   1.3851    .01786   1.50000    .0863   .0739   .7557
  10.000   1.4187    .01892   1.50000    .0836   .0696   .7608
  10.500   1.4490    .02023   1.50000    .0805   .0648   .7660
  11.000   1.4829    .02135   1.50000    .0781   .0614   .7703
  11.500   1.5098    .02286   1.50000    .0749   .0577   .7792
  12.000   1.5392    .02430   1.50000    .0723   .0547   .7860
  12.500   1.5671    .02587   1.50000    .0696   .0521   .7923
  13.000   1.5883    .02789   1.50000    .0664   .0493   .7985
  13.500   1.6130    .02977   1.50000    .0637   .0470   .8074
  14.000   1.6371    .03178   1.50000    .0613   .0452   .8151
  14.500   1.6579    .03414   1.50000    .0588   .0433   .8222
  15.000   1.6709    .03723   1.50000    .0559   .0411   .8324
  15.500   1.6902    .03987   1.50000    .0538   .0400   .8422
  16.000   1.7109    .04251   1.50000    .0520   .0388   .8537
  16.500   1.7253    .04588   1.50000    .0502   .0377   .8654
  17.000   1.7356    .04978   1.50000    .0486   .0367   .8803
  17.500   1.7389    .05450   1.50000    .0470   .0355   .9010
  18.000   1.7262    .06058   1.50000    .0450   .0344  1.0000
  18.500   1.7426    .06441   1.50000    .0448   .0338  1.0000
  19.000   1.7502    .06941   1.50000    .0449   .0331  1.0000
  19.500   1.7503    .07559   1.50000    .0455   .0324  1.0000
  20.000   1.7450    .08278   1.50000    .0468   .0319  1.0000
  20.500   1.7312    .09157   1.50000    .0491   .0314  1.0000
  21.000   1.7128    .10138   1.50000    .0525   .0309  1.0000
  21.500   1.6815    .11364   1.50000    .0577   .0304  1.0000
  22.000   1.6411    .12803   1.50000    .0647   .0300  1.0000
