#  
#       XFOIL         Version 6.1
#  
# Calculated polar for: AirfoilName                     
#  
# 1 1 Reynolds number fixed          Mach number fixed         
#  
# xtrf =   1.000 (suction)    1.000 (pressure)
# Mach =    .000     Re =     6.000 e 6     Ncrit =   9.000
#  
#   alpha     CL        CD      Re(CL)     CM     S xtr   P xtr
#  ------- -------- --------- --------- -------- ------- -------
    .000    .1893    .00453   6.00000   .0418   .5001   .4926
    .500    .2497    .00456   6.00000   .0427   .4894   .5039
   1.000    .3102    .00457   6.00000   .0437   .4807   .5129
   1.500    .3700    .00466   6.00000   .0445   .4643   .5231
   2.000    .4299    .00472   6.00000   .0454   .4520   .5336
   2.500    .4897    .00481   6.00000   .0462   .4370   .5419
   3.000    .5486    .00497   6.00000   .0470   .4127   .5517
   3.500    .6069    .00520   6.00000   .0476   .3845   .5599
   4.000    .6627    .00569   6.00000   .0480   .3252   .5697
   4.500    .7172    .00629   6.00000   .0482   .2610   .5791
   5.000    .7722    .00686   6.00000   .0484   .2111   .5864
   5.500    .8267    .00744   6.00000   .0486   .1649   .5972
   6.000    .8808    .00803   6.00000   .0488   .1241   .6065
   6.500    .9352    .00857   6.00000   .0490   .0951   .6174
   7.000    .9892    .00911   6.00000   .0491   .0712   .6278
   7.500   1.0415    .00978   6.00000   .0491   .0479   .6369
   8.000   1.0946    .01031   6.00000   .0491   .0368   .6482
   8.500   1.1480    .01078   6.00000   .0492   .0319   .6584
   9.000   1.2011    .01121   6.00000   .0493   .0297   .6715
   9.500   1.2529    .01173   6.00000   .0491   .0274   .6816
  10.000   1.3041    .01222   6.00000   .0490   .0257   .6954
  10.500   1.3550    .01268   6.00000   .0488   .0248   .7066
  11.000   1.4032    .01326   6.00000   .0482   .0234   .7204
  11.500   1.4484    .01396   6.00000   .0473   .0217   .7330
  12.000   1.4882    .01466   6.00000   .0455   .0204   .7472
  12.500   1.5269    .01545   6.00000   .0440   .0194   .7615
  13.000   1.5586    .01663   6.00000   .0419   .0179   .7770
  13.500   1.5871    .01808   6.00000   .0399   .0162   .7937
  14.000   1.6139    .01970   6.00000   .0381   .0150   .8128
  14.500   1.6349    .02177   6.00000   .0360   .0136   .8351
  15.000   1.6539    .02410   6.00000   .0341   .0122   .8618
  15.500   1.6687    .02670   6.00000   .0322   .0115   .9126
  16.000   1.6767    .02970   6.00000   .0299   .0107  1.0000
  16.500   1.6868    .03321   6.00000   .0287   .0100  1.0000
  17.000   1.6941    .03722   6.00000   .0278   .0093  1.0000
  17.500   1.7067    .04107   6.00000   .0275   .0091  1.0000
  18.000   1.7170    .04532   6.00000   .0275   .0089  1.0000
  18.500   1.7237    .05010   6.00000   .0278   .0087  1.0000
  19.000   1.7272    .05540   6.00000   .0284   .0084  1.0000
  19.500   1.7286    .06126   6.00000   .0294   .0082  1.0000
  20.000   1.7272    .06769   6.00000   .0309   .0079  1.0000
  20.500   1.7227    .07469   6.00000   .0327   .0076  1.0000
  21.000   1.7149    .08223   6.00000   .0350   .0073  1.0000
  21.500   1.7044    .09051   6.00000   .0378   .0071  1.0000
  22.000   1.6899    .09969   6.00000   .0414   .0068  1.0000
