#  
#       XFOIL         Version 6.1
#  
# Calculated polar for: AirfoilName                     
#  
# 1 1 Reynolds number fixed          Mach number fixed         
#  
# xtrf =   1.000 (suction)    1.000 (pressure)
# Mach =    .000     Re =     6.000 e 6     Ncrit =   9.000
#  
#   alpha     CL        CD      Re(CL)     CM     S xtr   P xtr
#  ------- -------- --------- --------- -------- ------- -------
    .000    .3722    .00427   6.00000   .0847   .5382   .5230
    .500    .4305    .00430   6.00000   .0854   .5268   .5402
   1.000    .4888    .00437   6.00000   .0859   .5115   .5498
   1.500    .5468    .00444   6.00000   .0865   .4981   .5615
   2.000    .6042    .00457   6.00000   .0869   .4795   .5695
   2.500    .6608    .00474   6.00000   .0873   .4515   .5799
   3.000    .7131    .00527   6.00000   .0868   .3808   .5884
   3.500    .7630    .00601   6.00000   .0861   .2919   .5989
   4.000    .8126    .00682   6.00000   .0854   .2010   .6087
   4.500    .8633    .00753   6.00000   .0848   .1343   .6200
   5.000    .9150    .00814   6.00000   .0845   .0858   .6318
   5.500    .9674    .00866   6.00000   .0842   .0570   .6450
   6.000   1.0194    .00919   6.00000   .0840   .0374   .6562
   6.500   1.0727    .00958   6.00000   .0839   .0301   .6698
   7.000   1.1259    .00995   6.00000   .0838   .0257   .6820
   7.500   1.1781    .01038   6.00000   .0836   .0224   .6960
   8.000   1.2301    .01078   6.00000   .0833   .0197   .7100
   8.500   1.2806    .01127   6.00000   .0829   .0171   .7234
   9.000   1.3308    .01174   6.00000   .0824   .0151   .7385
   9.500   1.3798    .01226   6.00000   .0817   .0137   .7543
  10.000   1.4259    .01293   6.00000   .0806   .0117   .7703
  10.500   1.4731    .01344   6.00000   .0798   .0111   .7874
  11.000   1.5177    .01406   6.00000   .0785   .0104   .8044
  11.500   1.5544    .01479   6.00000   .0759   .0096   .8231
  12.000   1.5890    .01577   6.00000   .0732   .0085   .8462
  12.500   1.6189    .01681   6.00000   .0700   .0080   .8779
  13.000   1.6499    .01771   6.00000   .0672   .0079   .9340
  13.500   1.6761    .01886   6.00000   .0639   .0077  1.0000
  14.000   1.7024    .02036   6.00000   .0613   .0075  1.0000
  14.500   1.7258    .02216   6.00000   .0587   .0072  1.0000
  15.000   1.7440    .02433   6.00000   .0559   .0069  1.0000
  15.500   1.7593    .02687   6.00000   .0532   .0065  1.0000
  16.000   1.7700    .02981   6.00000   .0505   .0061  1.0000
  16.500   1.7719    .03373   6.00000   .0479   .0057  1.0000
  17.500   1.7900    .04127   6.00000   .0451   .0054  1.0000
  18.000   1.8009    .04512   6.00000   .0443   .0054  1.0000
  18.500   1.8111    .04933   6.00000   .0439   .0053  1.0000
  19.000   1.8180    .05408   6.00000   .0439   .0052  1.0000
  19.500   1.8224    .05933   6.00000   .0442   .0052  1.0000
  20.000   1.8241    .06508   6.00000   .0449   .0051  1.0000
  20.500   1.8222    .07137   6.00000   .0460   .0050  1.0000
  21.000   1.8161    .07860   6.00000   .0477   .0049  1.0000
  21.500   1.8076    .08645   6.00000   .0500   .0048  1.0000
  22.000   1.7956    .09507   6.00000   .0529   .0047  1.0000
