#  
#       XFOIL         Version 6.1
#  
# Calculated polar for: AirfoilName                     
#  
# 1 1 Reynolds number fixed          Mach number fixed         
#  
# xtrf =   1.000 (suction)    1.000 (pressure)
# Mach =    .000     Re =     9.000 e 6     Ncrit =   9.000
#  
#   alpha     CL        CD      Re(CL)     CM     S xtr   P xtr
#  ------- -------- --------- --------- -------- ------- -------
    .000    .1915    .00455   9.00000   .0413   .4653   .4612
    .500    .2532    .00457   9.00000   .0425   .4582   .4676
   1.000    .3147    .00459   9.00000   .0437   .4517   .4762
   1.500    .3758    .00464   9.00000   .0448   .4413   .4845
   2.000    .4368    .00472   9.00000   .0459   .4285   .4919
   2.500    .4975    .00479   9.00000   .0470   .4185   .5018
   3.000    .5585    .00484   9.00000   .0482   .4084   .5092
   3.500    .6184    .00500   9.00000   .0491   .3923   .5150
   4.000    .6772    .00525   9.00000   .0499   .3624   .5244
   4.500    .7340    .00565   9.00000   .0505   .3208   .5322
   5.000    .7905    .00610   9.00000   .0510   .2835   .5383
   5.500    .8445    .00675   9.00000   .0512   .2263   .5463
   6.000    .8985    .00737   9.00000   .0515   .1816   .5542
   6.500    .9536    .00785   9.00000   .0518   .1552   .5614
   7.000   1.0087    .00832   9.00000   .0522   .1324   .5702
   7.500   1.0629    .00881   9.00000   .0525   .1098   .5798
   8.000   1.1159    .00936   9.00000   .0526   .0907   .5873
   8.500   1.1671    .01001   9.00000   .0525   .0723   .5955
   9.000   1.2171    .01066   9.00000   .0523   .0554   .6043
   9.500   1.2648    .01140   9.00000   .0517   .0421   .6122
  10.000   1.3128    .01202   9.00000   .0512   .0361   .6222
  10.500   1.3595    .01262   9.00000   .0505   .0320   .6326
  11.000   1.3975    .01331   9.00000   .0485   .0299   .6405
  11.500   1.4350    .01423   9.00000   .0471   .0279   .6516
  12.000   1.4719    .01520   9.00000   .0458   .0272   .6625
  12.500   1.5037    .01651   9.00000   .0443   .0262   .6736
  13.000   1.5320    .01808   9.00000   .0427   .0251   .6847
  13.500   1.5583    .01988   9.00000   .0411   .0240   .6962
  14.000   1.5808    .02193   9.00000   .0395   .0229   .7092
  14.500   1.6050    .02400   9.00000   .0382   .0225   .7194
  15.000   1.6229    .02653   9.00000   .0367   .0216   .7336
  15.500   1.6377    .02954   9.00000   .0354   .0206   .7459
  16.000   1.6516    .03291   9.00000   .0346   .0195   .7599
  16.500   1.6641    .03653   9.00000   .0339   .0184   .7722
  17.000   1.6761    .04042   9.00000   .0336   .0172   .7892
  17.500   1.6834    .04495   9.00000   .0334   .0157   .8073
  18.000   1.6947    .04919   9.00000   .0334   .0140   .8261
  18.500   1.6971    .05458   9.00000   .0339   .0126   .8516
  19.000   1.6978    .06026   9.00000   .0345   .0112   .9020
  19.500   1.6982    .06588   9.00000   .0350   .0106  1.0000
  20.000   1.7050    .07116   9.00000   .0359   .0101  1.0000
  20.500   1.7042    .07760   9.00000   .0374   .0096  1.0000
  21.000   1.7004    .08461   9.00000   .0393   .0091  1.0000
  21.500   1.6942    .09198   9.00000   .0415   .0085  1.0000
  22.000   1.7024    .09745   9.00000   .0431   .0084  1.0000
