#  
#       XFOIL         Version 6.1
#  
# Calculated polar for: AirfoilName                     
#  
# 1 1 Reynolds number fixed          Mach number fixed         
#  
# xtrf =   1.000 (suction)    1.000 (pressure)
# Mach =    .000     Re =     3.000 e 6     Ncrit =   9.000
#  
#   alpha     CL        CD      Re(CL)     CM     S xtr   P xtr
#  ------- -------- --------- --------- -------- ------- -------
    .000    .3667    .00481   3.00000   .0836   .5698   .5600
    .500    .4251    .00487   3.00000   .0841   .5592   .5690
   1.000    .4834    .00490   3.00000   .0847   .5501   .5806
   1.500    .5414    .00498   3.00000   .0853   .5374   .5889
   2.000    .5988    .00509   3.00000   .0857   .5222   .5996
   2.500    .6563    .00519   3.00000   .0862   .5059   .6094
   3.000    .7128    .00536   3.00000   .0865   .4826   .6207
   3.500    .7688    .00557   3.00000   .0867   .4553   .6320
   4.000    .8205    .00613   3.00000   .0862   .3847   .6451
   4.500    .8655    .00731   3.00000   .0848   .2631   .6565
   5.000    .9121    .00837   3.00000   .0837   .1676   .6700
   5.500    .9605    .00925   3.00000   .0829   .1027   .6827
   6.000   1.0104    .00996   3.00000   .0824   .0656   .6965
   6.500   1.0603    .01062   3.00000   .0818   .0416   .7108
   7.000   1.1112    .01116   3.00000   .0814   .0322   .7243
   7.500   1.1615    .01171   3.00000   .0809   .0268   .7397
   8.000   1.2120    .01219   3.00000   .0804   .0241   .7554
   8.500   1.2597    .01284   3.00000   .0795   .0204   .7716
   9.000   1.3084    .01333   3.00000   .0788   .0187   .7885
   9.500   1.3523    .01410   3.00000   .0774   .0162   .8056
  10.000   1.3970    .01473   3.00000   .0762   .0149   .8235
  10.500   1.4355    .01542   3.00000   .0738   .0139   .8445
  11.000   1.4710    .01638   3.00000   .0713   .0126   .8706
  11.500   1.4971    .01762   3.00000   .0675   .0113   .9126
  12.000   1.5254    .01847   3.00000   .0641   .0110  1.0000
  12.500   1.5556    .01981   3.00000   .0617   .0105  1.0000
  13.000   1.5812    .02147   3.00000   .0591   .0100  1.0000
  13.500   1.6025    .02353   3.00000   .0564   .0095  1.0000
  14.000   1.6189    .02599   3.00000   .0536   .0090  1.0000
  14.500   1.6283    .02914   3.00000   .0508   .0085  1.0000
  15.000   1.6258    .03334   3.00000   .0476   .0081  1.0000
  15.500   1.6482    .03577   3.00000   .0464   .0080  1.0000
  16.000   1.6642    .03894   3.00000   .0453   .0078  1.0000
  16.500   1.6759    .04263   3.00000   .0443   .0076  1.0000
  17.000   1.6857    .04676   3.00000   .0436   .0074  1.0000
  17.500   1.6923    .05150   3.00000   .0434   .0071  1.0000
  18.000   1.6965    .05676   3.00000   .0435   .0069  1.0000
  18.500   1.6975    .06261   3.00000   .0441   .0067  1.0000
  19.000   1.6945    .06914   3.00000   .0451   .0066  1.0000
  19.500   1.6885    .07642   3.00000   .0467   .0064  1.0000
  20.000   1.6745    .08526   3.00000   .0492   .0062  1.0000
  20.500   1.6575    .09496   3.00000   .0526   .0061  1.0000
  21.000   1.6350    .10601   3.00000   .0571   .0060  1.0000
  21.500   1.6037    .11902   3.00000   .0632   .0059  1.0000
  22.000   1.5648    .13431   3.00000   .0712   .0058  1.0000
