#  
#       XFOIL         Version 6.1
#  
# Calculated polar for: AirfoilName                     
#  
# 1 1 Reynolds number fixed          Mach number fixed         
#  
# xtrf =   1.000 (suction)    1.000 (pressure)
# Mach =    .000     Re =     3.000 e 6     Ncrit =   9.000
#  
#   alpha     CL        CD      Re(CL)     CM     S xtr   P xtr
#  ------- -------- --------- --------- -------- ------- -------
    .000    .3670    .00444   3.00000   .0849   .6288   .6256
    .500    .4250    .00449   3.00000   .0856   .6216   .6324
   1.000    .4834    .00453   3.00000   .0863   .6128   .6384
   1.500    .5412    .00460   3.00000   .0870   .6025   .6449
   2.000    .5991    .00464   3.00000   .0877   .5905   .6524
   2.500    .6559    .00477   3.00000   .0882   .5723   .6594
   3.000    .7102    .00505   3.00000   .0882   .5277   .6665
   3.500    .7601    .00565   3.00000   .0875   .4502   .6748
   4.000    .8008    .00701   3.00000   .0854   .2976   .6825
   4.500    .8441    .00820   3.00000   .0838   .1783   .6919
   5.000    .8892    .00922   3.00000   .0826   .0939   .7004
   5.500    .9366    .01003   3.00000   .0816   .0469   .7089
   6.000    .9865    .01060   3.00000   .0811   .0296   .7196
   6.500   1.0366    .01112   3.00000   .0807   .0234   .7287
   7.000   1.0866    .01160   3.00000   .0802   .0204   .7403
   8.000   1.1827    .01267   3.00000   .0786   .0165   .7634
   8.500   1.2281    .01327   3.00000   .0775   .0152   .7766
   9.000   1.2661    .01401   3.00000   .0749   .0140   .7902
  10.000   1.3445    .01558   3.00000   .0710   .0123   .8202
  10.500   1.3810    .01642   3.00000   .0688   .0117   .8368
  11.000   1.4149    .01742   3.00000   .0664   .0111   .8565
  11.500   1.4450    .01865   3.00000   .0636   .0105   .8786
  12.000   1.4680    .02029   3.00000   .0601   .0098   .9080
  12.500   1.4740    .02293   3.00000   .0548   .0090   .9503
  13.000   1.5070    .02393   3.00000   .0530   .0089  1.0000
  13.500   1.5369    .02546   3.00000   .0514   .0086  1.0000
  14.000   1.5627    .02730   3.00000   .0495   .0083  1.0000
  14.500   1.5843    .02943   3.00000   .0473   .0078  1.0000
  15.000   1.6023    .03199   3.00000   .0452   .0075  1.0000
  15.500   1.6174    .03498   3.00000   .0432   .0072  1.0000
  16.000   1.6281    .03850   3.00000   .0413   .0069  1.0000
  16.500   1.6313    .04290   3.00000   .0395   .0066  1.0000
  17.000   1.6236    .04879   3.00000   .0379   .0063  1.0000
  18.000   1.6282    .05944   3.00000   .0373   .0060  1.0000
  18.500   1.6430    .06352   3.00000   .0376   .0059  1.0000
  19.000   1.6497    .06878   3.00000   .0382   .0058  1.0000
  19.500   1.6548    .07448   3.00000   .0393   .0057  1.0000
  20.000   1.6503    .08175   3.00000   .0410   .0055  1.0000
  20.500   1.6420    .08994   3.00000   .0435   .0054  1.0000
  21.000   1.6312    .09882   3.00000   .0468   .0053  1.0000
  21.500   1.6105    .10968   3.00000   .0515   .0052  1.0000
  22.000   1.5823    .12237   3.00000   .0576   .0051  1.0000
