#  
#       XFOIL         Version 6.1
#  
# Calculated polar for: DU91                            
#  
# 1 1 Reynolds number fixed          Mach number fixed         
#  
# xtrf =   1.000 (suction)    1.000 (pressure)
# Mach =    .000     Re =     1.000 e 6     Ncrit =   9.000
#  
#   alpha     CL        CD      Re(CL)     CM     S xtr   P xtr
#  ------- -------- --------- --------- -------- ------- -------
    .000    .3896    .00895   1.00000   .1189   .5024   .4856
    .500    .4515    .00899   1.00000   .1202   .4958   .4931
   1.000    .5126    .00921   1.00000   .1214   .4882   .4981
   1.500    .5746    .00934   1.00000   .1227   .4830   .5028
   2.000    .6370    .00942   1.00000   .1240   .4787   .5071
   2.500    .6988    .00949   1.00000   .1252   .4740   .5128
   3.000    .7598    .00960   1.00000   .1263   .4695   .5186
   3.500    .8197    .00984   1.00000   .1271   .4637   .5228
   4.000    .8796    .01019   1.00000   .1280   .4572   .5271
   4.500    .9404    .01026   1.00000   .1289   .4541   .5315
   5.000   1.0006    .01044   1.00000   .1297   .4498   .5346
   5.500   1.0609    .01047   1.00000   .1307   .4448   .5409
   6.000   1.1189    .01070   1.00000   .1311   .4373   .5455
   6.500   1.1769    .01091   1.00000   .1316   .4277   .5498
   7.000   1.2348    .01101   1.00000   .1319   .4136   .5540
   7.500   1.2913    .01129   1.00000   .1321   .4009   .5577
   8.000   1.3472    .01159   1.00000   .1322   .3865   .5607
   8.500   1.4016    .01190   1.00000   .1321   .3651   .5668
   9.000   1.4462    .01274   1.00000   .1306   .3224   .5714
   9.500   1.4731    .01450   1.00000   .1265   .2588   .5750
  10.000   1.4834    .01654   1.00000   .1200   .2032   .5785
  10.500   1.4863    .01906   1.00000   .1134   .1609   .5823
  11.000   1.4851    .02216   1.00000   .1077   .1288   .5856
  11.500   1.4785    .02608   1.00000   .1027   .1050   .5879
  12.000   1.4723    .03049   1.00000   .0992   .0869   .5915
  12.500   1.4637    .03561   1.00000   .0966   .0733   .5961
  13.000   1.4547    .04129   1.00000   .0947   .0627   .5995
  13.500   1.4484    .04734   1.00000   .0937   .0539   .6028
  14.000   1.4424    .05381   1.00000   .0933   .0469   .6061
  14.500   1.4388    .06033   1.00000   .0934   .0411   .6092
  15.000   1.4371    .06696   1.00000   .0938   .0362   .6121
  15.500   1.4344    .07400   1.00000   .0945   .0325   .6146
  16.000   1.4344    .08087   1.00000   .0955   .0295   .6164
  16.500   1.4326    .08812   1.00000   .0969   .0270   .6211
  17.000   1.4377    .09462   1.00000   .0982   .0250   .6254
  17.500   1.4367    .10218   1.00000   .1000   .0235   .6287
  18.000   1.4329    .11013   1.00000   .1019   .0219   .6318
  18.500   1.4353    .11741   1.00000   .1040   .0210   .6353
  19.000   1.4417    .12398   1.00000   .1059   .0201   .6387
  19.500   1.4390    .13215   1.00000   .1087   .0194   .6414
  20.000   1.4356    .14051   1.00000   .1118   .0187   .6437
  20.500   1.4284    .14966   1.00000   .1155   .0180   .6457
  21.000   1.4189    .15966   1.00000   .1202   .0174   .6507
  21.500   1.4277    .16627   1.00000   .1233   .0169   .6548
  22.000   1.4264    .17486   1.00000   .1277   .0165   .6580
