#  
#       XFOIL         Version 6.1
#  
# Calculated polar for: AirfoilName                     
#  
# 1 1 Reynolds number fixed          Mach number fixed         
#  
# xtrf =   1.000 (suction)    1.000 (pressure)
# Mach =    .000     Re =     6.000 e 6     Ncrit =   9.000
#  
#   alpha     CL        CD      Re(CL)     CM     S xtr   P xtr
#  ------- -------- --------- --------- -------- ------- -------
    .000    .3751    .00460   6.00000   .0828   .5035   .4914
    .500    .4347    .00467   6.00000   .0836   .4931   .4998
   1.000    .4946    .00468   6.00000   .0844   .4849   .5108
   1.500    .5536    .00478   6.00000   .0851   .4731   .5199
   2.000    .6124    .00487   6.00000   .0858   .4578   .5309
   2.500    .6712    .00496   6.00000   .0865   .4453   .5405
   3.000    .7293    .00511   6.00000   .0870   .4301   .5490
   3.500    .7864    .00532   6.00000   .0874   .4057   .5584
   4.000    .8424    .00560   6.00000   .0877   .3741   .5665
   4.500    .8950    .00615   6.00000   .0874   .3221   .5770
   5.000    .9447    .00692   6.00000   .0867   .2526   .5863
   5.500    .9962    .00756   6.00000   .0864   .2032   .5944
   6.000   1.0476    .00819   6.00000   .0860   .1620   .6050
   6.500   1.0988    .00880   6.00000   .0856   .1289   .6141
   7.000   1.1494    .00943   6.00000   .0852   .1002   .6259
   7.500   1.1988    .01010   6.00000   .0846   .0736   .6363
   8.000   1.2463    .01088   6.00000   .0837   .0503   .6468
   8.500   1.2935    .01159   6.00000   .0828   .0366   .6576
   9.000   1.3424    .01212   6.00000   .0822   .0317   .6696
   9.500   1.3895    .01270   6.00000   .0813   .0287   .6819
  10.000   1.4359    .01326   6.00000   .0803   .0266   .6938
  10.500   1.4749    .01383   6.00000   .0780   .0252   .7073
  11.000   1.5150    .01460   6.00000   .0763   .0238   .7207
  11.500   1.5486    .01555   6.00000   .0738   .0223   .7340
  12.500   1.6143    .01771   6.00000   .0696   .0203   .7638
  13.000   1.6405    .01929   6.00000   .0672   .0189   .7802
  13.500   1.6630    .02116   6.00000   .0647   .0174   .7992
  14.000   1.6860    .02312   6.00000   .0626   .0163   .8191
  14.500   1.7035    .02547   6.00000   .0602   .0149   .8438
  15.000   1.7151    .02838   6.00000   .0579   .0135   .8808
  15.500   1.7244    .03130   6.00000   .0553   .0123  1.0000
  16.000   1.7336    .03491   6.00000   .0537   .0113  1.0000
  16.500   1.7415    .03900   6.00000   .0526   .0103  1.0000
  17.000   1.7502    .04324   6.00000   .0518   .0094  1.0000
  17.500   1.7577    .04779   6.00000   .0514   .0089  1.0000
  18.000   1.7611    .05287   6.00000   .0512   .0085  1.0000
  18.500   1.7626    .05850   6.00000   .0514   .0080  1.0000
  19.000   1.7627    .06453   6.00000   .0520   .0075  1.0000
  19.500   1.7601    .07106   6.00000   .0530   .0070  1.0000
  20.000   1.7643    .07683   6.00000   .0541   .0069  1.0000
  20.500   1.7661    .08292   6.00000   .0554   .0068  1.0000
  21.000   1.7626    .09005   6.00000   .0573   .0067  1.0000
  21.500   1.7565    .09775   6.00000   .0596   .0065  1.0000
  22.000   1.7478    .10600   6.00000   .0624   .0064  1.0000
