  
       XFOIL         Version 6.1
  
 Calculated polar for: AirfoilName                     
  
 1 1 Reynolds number fixed          Mach number fixed         
  
 xtrf =   1.000 (suction)    1.000 (pressure)
 Mach =    .000     Re =     3.000 e 6     Ncrit =   9.000
  
   alpha     CL        CD      Re(CL)     CM     S xtr   P xtr
  ------- -------- --------- --------- -------- ------- -------
    .000    .1869    .00554   3.00000   .0403   .5056   .4997
    .500    .2482    .00554   3.00000   .0415   .4984   .5079
   1.000    .3091    .00564   3.00000   .0425   .4897   .5138
   1.500    .3701    .00564   3.00000   .0437   .4821   .5236
   2.000    .4311    .00566   3.00000   .0448   .4757   .5313
   2.500    .4916    .00576   3.00000   .0458   .4679   .5379
   3.000    .5521    .00583   3.00000   .0469   .4574   .5470
   3.500    .6123    .00591   3.00000   .0479   .4468   .5551
   4.000    .6720    .00606   3.00000   .0488   .4363   .5619
   4.500    .7322    .00614   3.00000   .0498   .4258   .5704
   5.000    .7909    .00632   3.00000   .0506   .4071   .5798
   5.500    .8492    .00657   3.00000   .0514   .3888   .5877
   6.000    .9053    .00698   3.00000   .0518   .3530   .5970
   6.500    .9581    .00765   3.00000   .0519   .3042   .6058
   7.000   1.0093    .00845   3.00000   .0518   .2551   .6133
   7.500   1.0591    .00929   3.00000   .0516   .2076   .6231
   8.000   1.1076    .01016   3.00000   .0512   .1685   .6329
   8.500   1.1566    .01092   3.00000   .0508   .1412   .6412
   9.000   1.2028    .01177   3.00000   .0502   .1166   .6528
   9.500   1.2458    .01270   3.00000   .0491   .0940   .6620
  10.000   1.2800    .01374   3.00000   .0467   .0754   .6729
  10.500   1.3078    .01522   3.00000   .0444   .0595   .6847
  11.000   1.3335    .01691   3.00000   .0423   .0484   .6943
  11.500   1.3576    .01881   3.00000   .0404   .0415   .7078
  12.000   1.3822    .02079   3.00000   .0388   .0375   .7188
  12.500   1.4010    .02320   3.00000   .0371   .0343   .7326
  13.000   1.4234    .02550   3.00000   .0358   .0329   .7442
  13.500   1.4411    .02816   3.00000   .0344   .0317   .7594
  14.000   1.4559    .03128   3.00000   .0333   .0305   .7725
  14.500   1.4698    .03473   3.00000   .0325   .0291   .7878
  15.000   1.4826    .03841   3.00000   .0319   .0279   .8047
  15.500   1.5013    .04179   3.00000   .0318   .0274   .8240
  16.000   1.5158    .04574   3.00000   .0319   .0265   .8459
  16.500   1.5274    .05007   3.00000   .0320   .0255   .8801
  17.000   1.5360    .05414   3.00000   .0314   .0246  1.0000
  17.500   1.5404    .05955   3.00000   .0321   .0235  1.0000
  18.000   1.5473    .06497   3.00000   .0331   .0227  1.0000
  18.500   1.5618    .06952   3.00000   .0341   .0220  1.0000
  19.000   1.5698    .07500   3.00000   .0354   .0210  1.0000
  19.500   1.5710    .08148   3.00000   .0371   .0201  1.0000
  20.000   1.5696    .08831   3.00000   .0390   .0189  1.0000
  20.500   1.5762    .09415   3.00000   .0408   .0178  1.0000
  21.000   1.5731    .10163   3.00000   .0434   .0167  1.0000
  21.500   1.5659    .10988   3.00000   .0465   .0154  1.0000
  22.000   1.5656    .11703   3.00000   .0493   .0142  1.0000
