#  
#       XFOIL         Version 6.1
#  
# Calculated polar for: AirfoilName                     
#  
# 1 1 Reynolds number fixed          Mach number fixed         
#  
# xtrf =   1.000 (suction)    1.000 (pressure)
# Mach =    .000     Re =     6.000 e 6     Ncrit =   9.000
#  
#   alpha     CL        CD      Re(CL)     CM     S xtr   P xtr
#  ------- -------- --------- --------- -------- ------- -------
    .000    .3729    .00433   6.00000   .0842   .5257   .5062
    .500    .4316    .00435   6.00000   .0848   .5131   .5243
   1.000    .4897    .00444   6.00000   .0853   .4939   .5383
   1.500    .5476    .00454   6.00000   .0858   .4765   .5509
   2.000    .6054    .00464   6.00000   .0862   .4602   .5634
   2.500    .6617    .00487   6.00000   .0864   .4248   .5761
   3.000    .7169    .00518   6.00000   .0865   .3834   .5870
   3.500    .7687    .00579   6.00000   .0860   .3095   .5995
   4.000    .8212    .00636   6.00000   .0857   .2492   .6099
   4.500    .8724    .00705   6.00000   .0852   .1793   .6224
   5.000    .9249    .00762   6.00000   .0849   .1341   .6339
   5.500    .9772    .00820   6.00000   .0846   .0951   .6470
   6.000   1.0281    .00890   6.00000   .0841   .0547   .6581
   6.500   1.0804    .00943   6.00000   .0838   .0380   .6724
   7.000   1.1337    .00983   6.00000   .0837   .0315   .6854
   7.500   1.1864    .01026   6.00000   .0835   .0269   .6978
   8.000   1.2394    .01063   6.00000   .0833   .0248   .7125
   8.500   1.2909    .01110   6.00000   .0830   .0225   .7247
   9.000   1.3417    .01159   6.00000   .0825   .0201   .7395
   9.500   1.3926    .01202   6.00000   .0822   .0182   .7545
  10.000   1.4406    .01264   6.00000   .0814   .0151   .7682
  10.500   1.4879    .01323   6.00000   .0805   .0132   .7853
  11.000   1.5328    .01393   6.00000   .0793   .0110   .8023
  11.500   1.5762    .01462   6.00000   .0779   .0100   .8219
  12.000   1.6114    .01545   6.00000   .0750   .0089   .8442
  13.000   1.6765    .01729   6.00000   .0693   .0077   .9284
  13.500   1.7020    .01841   6.00000   .0659   .0074  1.0000
  14.000   1.7276    .01995   6.00000   .0631   .0070  1.0000
  14.500   1.7483    .02187   6.00000   .0602   .0067  1.0000
  15.000   1.7653    .02417   6.00000   .0573   .0063  1.0000
  15.500   1.7759    .02706   6.00000   .0544   .0058  1.0000
  16.500   1.7937    .03352   6.00000   .0497   .0053  1.0000
  17.000   1.8061    .03687   6.00000   .0483   .0053  1.0000
  17.500   1.8165    .04063   6.00000   .0473   .0052  1.0000
  18.000   1.8238    .04485   6.00000   .0466   .0051  1.0000
  18.500   1.8267    .04987   6.00000   .0463   .0050  1.0000
  19.000   1.8279    .05543   6.00000   .0466   .0049  1.0000
  19.500   1.8268    .06149   6.00000   .0473   .0048  1.0000
  20.000   1.8235    .06805   6.00000   .0484   .0047  1.0000
  20.500   1.8170    .07517   6.00000   .0500   .0046  1.0000
  21.000   1.8040    .08369   6.00000   .0526   .0045  1.0000
  21.500   1.7892    .09280   6.00000   .0557   .0044  1.0000
  22.000   1.7733    .10230   6.00000   .0594   .0043  1.0000
