#  
#       XFOIL         Version 6.1
#  
# Calculated polar for: FX66-s-196-V1                   
#  
# 1 1 Reynolds number fixed          Mach number fixed         
#  
# xtrf =   1.000 (suction)    1.000 (pressure)
# Mach =    .000     Re =     1.500 e 6     Ncrit =   9.000
#  
#   alpha     CL        CD      Re(CL)     CM     S xtr   P xtr
#  ------- -------- --------- --------- -------- ------- -------
    .000    .5258    .00743   1.50000    .1129   .5178   .5279
    .500    .5863    .00744   1.50000    .1144   .5156   .5323
   1.000    .6466    .00751   1.50000    .1158   .5133   .5359
   1.500    .7066    .00763   1.50000    .1171   .5107   .5395
   2.000    .7662    .00782   1.50000    .1185   .5077   .5436
   2.500    .8257    .00805   1.50000    .1198   .5045   .5472
   3.000    .8860    .00805   1.50000    .1212   .5032   .5528
   3.500    .9460    .00810   1.50000    .1226   .5018   .5585
   4.000   1.0056    .00820   1.50000    .1240   .5001   .5639
   4.500   1.0650    .00834   1.50000    .1253   .4982   .5692
   5.000   1.1242    .00844   1.50000    .1267   .4962   .5775
   5.500   1.1832    .00857   1.50000    .1280   .4941   .5854
   6.000   1.2416    .00874   1.50000    .1292   .4914   .5940
   6.500   1.2988    .00907   1.50000    .1303   .4849   .6060
   7.000   1.3587    .00877   1.50000    .1317   .4751   .6184
   7.500   1.4162    .00882   1.50000    .1328   .4520   .6329
   8.000   1.4712    .00914   1.50000    .1335   .4273   .6500
   8.500   1.4945    .01188   1.50000    .1298   .2917   .6684
   9.000   1.4899    .01536   1.50000    .1218   .1793   .6889
   9.500   1.4686    .01913   1.50000    .1128   .1201   .7141
  10.000   1.4462    .02422   1.50000    .1067   .0796   .7454
  10.500   1.4230    .03010   1.50000    .1019   .0495   .7887
  11.000   1.4070    .03577   1.50000    .0983   .0305   .8705
  11.500   1.3964    .04132   1.50000    .0954   .0186  1.0000
  12.000   1.4005    .04640   1.50000    .0942   .0138  1.0000
  12.500   1.4020    .05189   1.50000    .0930   .0108  1.0000
  13.000   1.4142    .05649   1.50000    .0925   .0097  1.0000
  13.500   1.4228    .06162   1.50000    .0921   .0086  1.0000
  14.000   1.4267    .06733   1.50000    .0915   .0076  1.0000
  14.500   1.4402    .07211   1.50000    .0916   .0072  1.0000
  15.000   1.4527    .07695   1.50000    .0916   .0066  1.0000
  15.500   1.4606    .08249   1.50000    .0917   .0061  1.0000
  16.000   1.4670    .08839   1.50000    .0920   .0058  1.0000
  16.500   1.4665    .09525   1.50000    .0923   .0054  1.0000
  17.000   1.4609    .10313   1.50000    .0932   .0052  1.0000
  17.500   1.4691    .10903   1.50000    .0941   .0049  1.0000
  18.000   1.4764    .11528   1.50000    .0954   .0047  1.0000
  18.500   1.4834    .12134   1.50000    .0966   .0045  1.0000
  19.000   1.4815    .12911   1.50000    .0985   .0044  1.0000
  19.500   1.4849    .13619   1.50000    .1005   .0041  1.0000
  20.000   1.4876    .14338   1.50000    .1028   .0040  1.0000
  20.500   1.4856    .15165   1.50000    .1058   .0038  1.0000
  21.000   1.4794    .16074   1.50000    .1094   .0037  1.0000
  21.500   1.4709    .17038   1.50000    .1137   .0036  1.0000
  22.000   1.4639    .17984   1.50000    .1182   .0035  1.0000
