#  
#       XFOIL         Version 6.1
#  
# Calculated polar for: AirfoilName                     
#  
# 1 1 Reynolds number fixed          Mach number fixed         
#  
# xtrf =   1.000 (suction)    1.000 (pressure)
# Mach =    .000     Re =     9.000 e 6     Ncrit =   9.000
#  
#   alpha     CL        CD      Re(CL)     CM     S xtr   P xtr
#  ------- -------- --------- --------- -------- ------- -------
    .000    .3749    .00415   9.00000   .0847   .5024   .4772
    .500    .4332    .00421   9.00000   .0852   .4832   .4985
   1.000    .4915    .00427   9.00000   .0858   .4649   .5166
   1.500    .5496    .00436   9.00000   .0863   .4490   .5294
   2.000    .6064    .00454   9.00000   .0865   .4192   .5419
   2.500    .6610    .00491   9.00000   .0865   .3643   .5550
   3.000    .7150    .00534   9.00000   .0863   .3102   .5663
   3.500    .7667    .00598   9.00000   .0858   .2325   .5786
   4.000    .8203    .00646   9.00000   .0857   .1815   .5890
   4.500    .8734    .00699   9.00000   .0854   .1340   .6015
   5.000    .9269    .00746   9.00000   .0853   .0984   .6114
   5.500    .9799    .00798   9.00000   .0851   .0656   .6250
   6.000   1.0322    .00854   9.00000   .0848   .0397   .6361
   6.500   1.0864    .00890   9.00000   .0847   .0319   .6485
   7.000   1.1403    .00926   9.00000   .0847   .0278   .6611
   7.500   1.1942    .00959   9.00000   .0847   .0249   .6745
   8.000   1.2471    .00999   9.00000   .0845   .0224   .6871
   8.500   1.2996    .01039   9.00000   .0843   .0202   .7001
   9.000   1.3520    .01077   9.00000   .0841   .0184   .7146
   9.500   1.4023    .01128   9.00000   .0837   .0153   .7273
  10.000   1.4518    .01181   9.00000   .0831   .0130   .7419
  10.500   1.5002    .01238   9.00000   .0823   .0109   .7567
  11.000   1.5469    .01300   9.00000   .0813   .0097   .7718
  11.500   1.5918    .01368   9.00000   .0801   .0085   .7878
  12.500   1.6737    .01499   9.00000   .0764   .0074   .8269
  13.000   1.7094    .01588   9.00000   .0739   .0068   .8515
  13.500   1.7377    .01693   9.00000   .0706   .0064   .8895
  14.000   1.7597    .01810   9.00000   .0665   .0060  1.0000
  14.500   1.7805    .01988   9.00000   .0632   .0054  1.0000
  16.000   1.8465    .02553   9.00000   .0558   .0052  1.0000
  16.500   1.8600    .02823   9.00000   .0533   .0050  1.0000
  17.000   1.8695    .03129   9.00000   .0509   .0049  1.0000
  17.500   1.8780    .03480   9.00000   .0491   .0047  1.0000
  18.000   1.8819    .03905   9.00000   .0477   .0045  1.0000
  18.500   1.8847    .04365   9.00000   .0468   .0044  1.0000
  19.000   1.8863    .04865   9.00000   .0463   .0043  1.0000
  19.500   1.8842    .05449   9.00000   .0464   .0041  1.0000
  20.000   1.8786    .06103   9.00000   .0472   .0040  1.0000
  20.500   1.8725    .06790   9.00000   .0484   .0039  1.0000
  21.000   1.8623    .07544   9.00000   .0500   .0037  1.0000
  21.500   1.8406    .08515   9.00000   .0530   .0035  1.0000
  22.000   1.8206    .09500   9.00000   .0564   .0033  1.0000
