#  
#       XFOIL         Version 6.1
#  
# Calculated polar for: A-Airfoil                       
#  
# 1 1 Reynolds number fixed          Mach number fixed         
#  
# xtrf =   1.000 (suction)    1.000 (pressure)
# Mach =    .000     Re =     2.100 e 6     Ncrit =   9.000
#  
#   alpha     CL        CD      Re(CL)     CM     S xtr   P xtr
#  ------- -------- --------- --------- -------- ------- -------
    .000    .1423    .00657   2.10000   -.0057   .3279   .5997
    .250    .1623    .00656   2.10000   -.0075   .3204   .6254
    .500    .1829    .00657   2.10000   -.0092   .3113   .6506
    .750    .2061    .00657   2.10000   -.0104   .3036   .6720
   1.000    .2296    .00658   2.10000   -.0115   .2960   .6913
   1.250    .2535    .00661   2.10000   -.0124   .2867   .7141
   1.500    .2795    .00664   2.10000   -.0129   .2783   .7310
   1.750    .3058    .00665   2.10000   -.0134   .2717   .7551
   2.000    .3326    .00669   2.10000   -.0137   .2649   .7786
   2.250    .3604    .00669   2.10000   -.0138   .2572   .8076
   2.500    .3898    .00671   2.10000   -.0136   .2523   .8284
   2.750    .4197    .00677   2.10000   -.0132   .2457   .8492
   3.000    .4483    .00687   2.10000   -.0132   .2394   .8638
   3.250    .4806    .00692   2.10000   -.0123   .2348   .8754
   3.500    .5099    .00699   2.10000   -.0120   .2304   .8880
   3.750    .5454    .00710   2.10000   -.0104   .2257   .8991
   4.000    .5745    .00722   2.10000   -.0101   .2207   .9111
   4.250    .6141    .00736   2.10000   -.0076   .2148   .9195
   4.500    .6486    .00743   2.10000   -.0062   .2115   .9292
   4.750    .6852    .00754   2.10000   -.0043   .2075   .9372
   5.000    .7228    .00770   2.10000   -.0021   .2036   .9440
   5.250    .7534    .00786   2.10000   -.0015   .1992   .9531
   5.500    .7933    .00806   2.10000   .0012   .1941   .9575
   5.750    .8299    .00815   2.10000   .0031   .1920   .9627
   6.000    .8607    .00827   2.10000   .0037   .1892   .9702
   7.500   1.0721    .00933   2.10000   .0142   .1708   .9888
   7.750   1.1035    .00952   2.10000   .0151   .1683   .9896
   8.000   1.1326    .00975   2.10000   .0156   .1658   .9902
   8.250   1.1596    .01002   2.10000   .0157   .1628   .9906
   8.500   1.1844    .01035   2.10000   .0154   .1597   .9910
   8.750   1.2054    .01075   2.10000   .0142   .1565   .9916
   9.000   1.2217    .01090   2.10000   .0120   .1557   .9926
   9.250   1.2279    .01109   2.10000   .0077   .1547   .9926
   9.500   1.2320    .01134   2.10000   .0032   .1529   .9919
   9.750   1.2463    .01160   2.10000   .0009   .1517   .9921
  10.000   1.2584    .01192   2.10000   -.0018   .1494   .9923
  10.250   1.2708    .01224   2.10000   -.0043   .1485   .9924
  10.500   1.2786    .01268   2.10000   -.0075   .1453   .9924
  10.750   1.2872    .01312   2.10000   -.0105   .1425   .9925
  11.000   1.2937    .01359   2.10000   -.0137   .1394   .9925
  11.250   1.3079    .01385   2.10000   -.0157   .1385   .9926
  11.500   1.3171    .01422   2.10000   -.0184   .1372   .9926
  11.750   1.3264    .01462   2.10000   -.0209   .1344   .9927
  12.000   1.3310    .01515   2.10000   -.0240   .1319   .9927
  12.250   1.3371    .01570   2.10000   -.0269   .1302   .9927
  12.500   1.3365    .01645   2.10000   -.0305   .1227   .9928
  12.750   1.3419    .01701   2.10000   -.0332   .1232   .9928
  13.000   1.3321    .01817   2.10000   -.0375   .1114   .9928
  13.250   1.3487    .01834   2.10000   -.0388   .1190   .9928
  13.500   1.3410    .01950   2.10000   -.0425   .1142   .9929
  13.750   1.5956    .01566   2.10000   -.0085   .1120  1.0000
  14.000   1.6087    .01618   2.10000   -.0101   .1097  1.0000
  14.250   1.6262    .01652   2.10000   -.0112   .1080  1.0000
  14.500   1.6411    .01700   2.10000   -.0125   .1060  1.0000
  14.750   1.6535    .01759   2.10000   -.0140   .1038  1.0000
  15.000   1.6632    .01837   2.10000   -.0157   .1005  1.0000
  15.250   1.6730    .01917   2.10000   -.0172   .0978  1.0000
  15.500   1.6857    .01985   2.10000   -.0184   .0959  1.0000
  15.750   1.6970    .02060   2.10000   -.0196   .0939  1.0000
  16.000   1.7058    .02154   2.10000   -.0209   .0914  1.0000
  16.250   1.7110    .02275   2.10000   -.0224   .0883  1.0000
  16.500   1.7151    .02407   2.10000   -.0237   .0855  1.0000
  16.750   1.7223    .02522   2.10000   -.0247   .0833  1.0000
  17.000   1.7279    .02654   2.10000   -.0256   .0810  1.0000
  17.250   1.7280    .02833   2.10000   -.0266   .0785  1.0000
  17.500   1.7267    .03035   2.10000   -.0274   .0762  1.0000
  17.750   1.7254    .03247   2.10000   -.0280   .0736  1.0000
  18.000   1.7240    .03469   2.10000   -.0283   .0712  1.0000
  18.250   1.7186    .03740   2.10000   -.0284   .0690  1.0000
  18.500   1.7078    .04082   2.10000   -.0282   .0667  1.0000
  18.750   1.6979    .04437   2.10000   -.0276   .0645  1.0000
  19.000   1.6894    .04796   2.10000   -.0267   .0626  1.0000
  19.250   1.6750    .05241   2.10000   -.0254   .0608  1.0000
  19.500   1.6549    .05770   2.10000   -.0235   .0592  1.0000
  19.750   1.6319    .06366   2.10000   -.0212   .0577  1.0000
  20.000   1.6078    .07007   2.10000   -.0184   .0558  1.0000
  20.250   1.5873    .07623   2.10000   -.0155   .0549  1.0000
  20.500   1.5615    .08334   2.10000   -.0121   .0536  1.0000
  20.750   1.5312    .09122   2.10000   -.0083   .0524  1.0000
  21.000   1.5008    .09939   2.10000   -.0042   .0515  1.0000
  21.250   1.4681    .10829   2.10000   .0004   .0503  1.0000
  21.500   1.4315    .11804   2.10000   .0055   .0485  1.0000
  21.750   1.4046    .12644   2.10000   .0100   .0473  1.0000
  22.000   1.3789    .13474   2.10000   .0146   .0467  1.0000
