#  
#       XFOIL         Version 6.1
#  
# Calculated polar for: AirfoilName                     
#  
# 1 1 Reynolds number fixed          Mach number fixed         
#  
# xtrf =   1.000 (suction)    1.000 (pressure)
# Mach =    .000     Re =     9.000 e 6     Ncrit =   9.000
#  
#   alpha     CL        CD      Re(CL)     CM     S xtr   P xtr
#  ------- -------- --------- --------- -------- ------- -------
    .000    .3778    .00456   9.00000   .0824   .4849   .4802
    .500    .4385    .00458   9.00000   .0836   .4809   .4854
   1.000    .4990    .00462   9.00000   .0847   .4768   .4898
   1.500    .5592    .00468   9.00000   .0857   .4704   .4939
   2.000    .6199    .00472   9.00000   .0868   .4648   .4965
   2.500    .6802    .00477   9.00000   .0879   .4591   .5004
   3.000    .7395    .00487   9.00000   .0888   .4511   .5066
   3.500    .7990    .00494   9.00000   .0898   .4403   .5128
   4.000    .8570    .00510   9.00000   .0905   .4259   .5182
   4.500    .9071    .00575   9.00000   .0899   .3627   .5222
   5.000    .9531    .00666   9.00000   .0887   .2816   .5296
   5.500   1.0018    .00739   9.00000   .0880   .2271   .5366
   6.000   1.0507    .00808   9.00000   .0874   .1799   .5430
   6.500   1.0997    .00873   9.00000   .0868   .1442   .5494
   7.000   1.1475    .00941   9.00000   .0860   .1110   .5581
   7.500   1.1946    .01004   9.00000   .0852   .0869   .5659
   8.000   1.2412    .01065   9.00000   .0842   .0701   .5732
   8.500   1.2846    .01131   9.00000   .0828   .0563   .5831
   9.000   1.3211    .01198   9.00000   .0802   .0462   .5918
   9.500   1.3576    .01282   9.00000   .0779   .0381   .6006
  10.000   1.3915    .01378   9.00000   .0757   .0321   .6113
  10.500   1.4240    .01486   9.00000   .0735   .0282   .6208
  11.000   1.4543    .01613   9.00000   .0713   .0260   .6320
  11.500   1.4840    .01752   9.00000   .0693   .0238   .6428
  12.000   1.5110    .01912   9.00000   .0672   .0224   .6544
  12.500   1.5338    .02105   9.00000   .0650   .0210   .6675
  13.000   1.5549    .02319   9.00000   .0629   .0195   .6802
  13.500   1.5750    .02547   9.00000   .0610   .0186   .6931
  14.000   1.5924    .02820   9.00000   .0592   .0175   .7044
  14.500   1.6085    .03123   9.00000   .0577   .0162   .7171
  15.000   1.6280    .03403   9.00000   .0565   .0151   .7286
  15.500   1.6438    .03736   9.00000   .0555   .0145   .7426
  16.000   1.6563    .04119   9.00000   .0546   .0138   .7554
  16.500   1.6675    .04531   9.00000   .0540   .0130   .7702
  17.000   1.6842    .04887   9.00000   .0535   .0122   .7855
  17.500   1.6947    .05320   9.00000   .0532   .0117   .8008
  18.000   1.7044    .05780   9.00000   .0532   .0114   .8198
  18.500   1.7201    .06172   9.00000   .0532   .0110   .8463
  19.000   1.7258    .06701   9.00000   .0536   .0106   .9073
  19.500   1.7288    .07223   9.00000   .0535   .0102  1.0000
  20.000   1.7386    .07708   9.00000   .0540   .0097  1.0000
  20.500   1.7377    .08337   9.00000   .0549   .0092  1.0000
  21.500   1.7496    .09443   9.00000   .0570   .0088  1.0000
  22.000   1.7615    .09919   9.00000   .0581   .0087  1.0000
